Global frequency set at 1000000000000 ticks per second
warn: No dot file generated. Please install pydot to generate the dot file and pdf.
src/mem/dram_interface.cc:690: warn: DRAM device capacity (8192 Mbytes) does not match the address range assigned (2048 Mbytes)
src/sim/kernel_workload.cc:46: info: kernel located at: /tmp/gem5_sys/binaries/vmlinux
src/base/loader/symtab.cc:95: warn: Cannot insert a new symbol table due to name collisions. Adding prefix to each symbol's name can resolve this issue.
src/base/statistics.hh:279: warn: One of the stats is a legacy stat. Legacy stat is a stat that does not belong to any statistics::Group. Legacy stat is deprecated.
[NICTopologySC system.nic] constructed; 38-module TLM topology online
src/base/vnc/vncserver.cc:163: warn: Sockets disabled, not accepting vnc client connections
src/dev/serial/terminal.cc:174: warn: Sockets disabled, not accepting terminal connections
src/base/remote_gdb.cc:418: warn: Sockets disabled, not accepting gdb connections
src/arch/arm/fs_workload.cc:121: info: Using bootloader at address 0x10
src/arch/arm/fs_workload.cc:139: info: Using kernel entry physical address at 0x80080000
src/arch/arm/linux/fs_workload.cc:98: info: Loading initrd file: /home/ubuntu/OpenURMA/eval/twonode/gem5_scaffold/driver/initramfs.cpio.gz at address 0x88200000
src/arch/arm/linux/fs_workload.cc:111: info: Loading DTB file: /tmp/m5_G378v2/system.dtb at address 0x88000000
src/dev/arm/energy_ctrl.cc:252: warn: Existing EnergyCtrl, but no enabled DVFSHandler found.
gem5 Simulator System.  https://www.gem5.org
gem5 is copyrighted software; use the --copyright option for details.

gem5 version 24.0.0.1
gem5 compiled May 27 2026 08:30:28
gem5 started May 27 2026 09:05:50
gem5 executing on ubuntu, pid 3760863
command line: /home/ubuntu/gem5/build/ARM/gem5.opt --outdir=/tmp/m5_G378v2 /home/ubuntu/OpenURMA/eval/twonode/gem5_scaffold/configs/single_node_fs_clean.py --kernel=vmlinux --initrd=/home/ubuntu/OpenURMA/eval/twonode/gem5_scaffold/driver/initramfs.cpio.gz --mem-size=2GB --link-delay-ns=0 --cpu atomic --extras

info: Standard input is not a terminal, disabling listeners.
[single_node_fs_clean] booting kernel=vmlinux
src/sim/simulate.cc:199: info: Entering event queue @ 0.  Starting simulation...
src/dev/arm/rv_ctrl.cc:176: warn: SCReg: Access to unknown device dcc0:site0:pos0:fn7:dev0
src/dev/arm/rv_ctrl.cc:122: warn: Tried to read RealView I/O at offset 0x60 that doesn't exist
src/dev/arm/rv_ctrl.cc:122: warn: Tried to read RealView I/O at offset 0x48 that doesn't exist
src/dev/arm/rv_ctrl.cc:198: warn: Tried to write RVIO at offset 0xa8 (data 0) that doesn't exist
src/dev/arm/rv_ctrl.cc:198: warn: Tried to write RVIO at offset 0xa8 (data 0) that doesn't exist
src/dev/arm/rv_ctrl.cc:198: warn: Tried to write RVIO at offset 0xa8 (data 0) that doesn't exist
src/dev/arm/rv_ctrl.cc:198: warn: Tried to write RVIO at offset 0xa8 (data 0) that doesn't exist
src/dev/arm/rv_ctrl.cc:198: warn: Tried to write RVIO at offset 0xa8 (data 0) that doesn't exist
src/dev/arm/rv_ctrl.cc:198: warn: Tried to write RVIO at offset 0xa8 (data 0) that doesn't exist
src/dev/arm/rv_ctrl.cc:198: warn: Tried to write RVIO at offset 0xa8 (data 0) that doesn't exist
src/dev/arm/rv_ctrl.cc:198: warn: Tried to write RVIO at offset 0xa8 (data 0) that doesn't exist
src/dev/arm/rv_ctrl.cc:198: warn: Tried to write RVIO at offset 0xa8 (data 0) that doesn't exist
src/dev/arm/rv_ctrl.cc:198: warn: Tried to write RVIO at offset 0xa8 (data 0) that doesn't exist
src/dev/arm/rv_ctrl.cc:122: warn: Tried to read RealView I/O at offset 0x8 that doesn't exist
src/dev/arm/rv_ctrl.cc:122: warn: Tried to read RealView I/O at offset 0x48 that doesn't exist
src/dev/arm/energy_ctrl.cc:77: warn: EnergyCtrl: Disabled handler, ignoring read from reg 0
src/arch/arm/insts/pseudo.cc:174: warn: 	instruction 'bti' unimplemented
[NIC mmio_b] cmd=W off=0x0 len=8 cq_q=0 sc_t=5934689248788 ps
[NIC mmio_b] cmd=W off=0x8 len=8 cq_q=0 sc_t=5934689249121 ps
[NIC mmio_b] cmd=W off=0x10 len=8 cq_q=0 sc_t=5934689249454 ps
[NIC mmio_b] cmd=W off=0x18 len=8 cq_q=0 sc_t=5934689249787 ps
[NIC mmio_b] cmd=W off=0x20 len=8 cq_q=0 sc_t=5934689415288 ps
[NIC mmio_b] cmd=W off=0x28 len=8 cq_q=0 sc_t=5934689415621 ps
[NIC mmio_b] cmd=W off=0x30 len=8 cq_q=0 sc_t=5934689415954 ps
[NIC mmio_b] cmd=W off=0x38 len=8 cq_q=0 sc_t=5934689416287 ps
[NIC mmio_b] cmd=W off=0x0 len=8 cq_q=0 sc_t=5934689665371 ps
[NIC mmio_b] cmd=W off=0x8 len=8 cq_q=0 sc_t=5934689665704 ps
[NIC mmio_b] cmd=W off=0x10 len=8 cq_q=0 sc_t=5934689666037 ps
[NIC mmio_b] cmd=W off=0x18 len=8 cq_q=0 sc_t=5934689666370 ps
[NIC mmio_b] cmd=W off=0x20 len=8 cq_q=0 sc_t=5934689831871 ps
[NIC mmio_b] cmd=W off=0x28 len=8 cq_q=0 sc_t=5934689832204 ps
[NIC mmio_b] cmd=W off=0x30 len=8 cq_q=0 sc_t=5934689832537 ps
[NIC mmio_b] cmd=W off=0x38 len=8 cq_q=0 sc_t=5934689832870 ps
[NIC wire_tx_tap #1] sc_t=5934689832870 ps
[NIC wire_rx_b #1] sc_t=5934689832870 ps cqe_q=0
[NIC wire_tx_tap #2] sc_t=5934689832870 ps
[NIC wire_rx_b #2] sc_t=5934689832870 ps cqe_q=0
[NIC wire_tx_tap #3] sc_t=5934689832870 ps
[NIC wire_rx_b #3] sc_t=5934689832870 ps cqe_q=0
[NIC wire_tx_tap #4] sc_t=5934689832870 ps
[NIC wire_rx_b #4] sc_t=5934689832870 ps cqe_q=0
[NIC wire_tx_tap #5] sc_t=5934689832870 ps
[NIC wire_rx_b #5] sc_t=5934689832870 ps cqe_q=0
[NIC cqe_tap #1] sc_t=5934689832870 ps q=1
[NIC cqe_tap #2] sc_t=5934689832870 ps q=2
[NIC wire_rx_b #5] drained, cqe_q=2 cycles=2
[NIC wire_rx_b #5] drained, cqe_q=2 cycles=2
[NIC wire_rx_b #5] drained, cqe_q=2 cycles=3
[NIC wire_rx_b #5] drained, cqe_q=2 cycles=3
[NIC wire_rx_b #5] drained, cqe_q=2 cycles=3
[NIC mmio_b] cmd=R off=0x40 len=16 cq_q=2 sc_t=5934690043659 ps
[NIC mmio_b] cmd=R off=0x50 len=16 cq_q=1 sc_t=5934690043992 ps
[NIC mmio_b] cmd=R off=0x60 len=16 cq_q=1 sc_t=5934690128241 ps
[NIC mmio_b] cmd=R off=0x70 len=16 cq_q=1 sc_t=5934690128574 ps
[NIC mmio_b] cmd=W off=0x0 len=8 cq_q=1 sc_t=5936025579120 ps
[NIC mmio_b] cmd=W off=0x8 len=8 cq_q=1 sc_t=5936025827205 ps
[NIC mmio_b] cmd=W off=0x10 len=8 cq_q=1 sc_t=5936026075290 ps
[NIC mmio_b] cmd=W off=0x18 len=8 cq_q=1 sc_t=5936026323375 ps
[NIC mmio_b] cmd=W off=0x20 len=8 cq_q=1 sc_t=5936026571460 ps
[NIC mmio_b] cmd=W off=0x28 len=8 cq_q=1 sc_t=5936026819545 ps
[NIC mmio_b] cmd=W off=0x30 len=8 cq_q=1 sc_t=5936027067630 ps
[NIC mmio_b] cmd=W off=0x38 len=8 cq_q=1 sc_t=5936027315715 ps
[NIC mmio_b] cmd=W off=0x0 len=8 cq_q=1 sc_t=5936028556806 ps
[NIC mmio_b] cmd=W off=0x8 len=8 cq_q=1 sc_t=5936028804891 ps
[NIC mmio_b] cmd=W off=0x10 len=8 cq_q=1 sc_t=5936029052976 ps
[NIC mmio_b] cmd=W off=0x18 len=8 cq_q=1 sc_t=5936029301061 ps
[NIC mmio_b] cmd=W off=0x20 len=8 cq_q=1 sc_t=5936029549146 ps
[NIC mmio_b] cmd=W off=0x28 len=8 cq_q=1 sc_t=5936029797231 ps
[NIC mmio_b] cmd=W off=0x30 len=8 cq_q=1 sc_t=5936030045316 ps
[NIC mmio_b] cmd=W off=0x38 len=8 cq_q=1 sc_t=5936030293401 ps
[NIC wire_tx_tap #6] sc_t=5936030293401 ps
[NIC wire_rx_b #6] sc_t=5936030293401 ps cqe_q=1
[NIC wire_tx_tap #7] sc_t=5936030293401 ps
[NIC wire_rx_b #7] sc_t=5936030293401 ps cqe_q=1
[NIC wire_tx_tap #8] sc_t=5936030293401 ps
[NIC wire_rx_b #8] sc_t=5936030293401 ps cqe_q=1
[NIC wire_tx_tap #9] sc_t=5936030293401 ps
[NIC wire_rx_b #9] sc_t=5936030293401 ps cqe_q=1
[NIC wire_tx_tap #10] sc_t=5936030293401 ps
[NIC wire_rx_b #10] sc_t=5936030293401 ps cqe_q=1
[NIC cqe_tap #3] sc_t=5936030293401 ps q=2
[NIC cqe_tap #4] sc_t=5936030293401 ps q=3
[NIC wire_rx_b #10] drained, cqe_q=3 cycles=2
[NIC wire_rx_b #10] drained, cqe_q=3 cycles=2
[NIC wire_rx_b #10] drained, cqe_q=3 cycles=3
[NIC wire_rx_b #10] drained, cqe_q=3 cycles=3
[NIC wire_rx_b #10] drained, cqe_q=3 cycles=3
[NIC mmio_b] cmd=R off=0x40 len=8 cq_q=3 sc_t=5936058746919 ps
[NIC mmio_b] cmd=R off=0x48 len=8 cq_q=1 sc_t=5936058953712 ps
[NIC mmio_b] cmd=R off=0x50 len=8 cq_q=1 sc_t=5936059160505 ps
[NIC mmio_b] cmd=R off=0x58 len=8 cq_q=1 sc_t=5936059367298 ps
[NIC mmio_b] cmd=R off=0x60 len=8 cq_q=1 sc_t=5936059574091 ps
[NIC mmio_b] cmd=R off=0x68 len=8 cq_q=1 sc_t=5936059780884 ps
[NIC mmio_b] cmd=R off=0x70 len=8 cq_q=1 sc_t=5936059987677 ps
[NIC mmio_b] cmd=R off=0x78 len=8 cq_q=1 sc_t=5936060194470 ps
[NIC mmio_b] cmd=W off=0x0 len=8 cq_q=1 sc_t=5937358767597 ps
[NIC mmio_b] cmd=W off=0x8 len=8 cq_q=1 sc_t=5937359015682 ps
[NIC mmio_b] cmd=W off=0x10 len=8 cq_q=1 sc_t=5937359263767 ps
[NIC mmio_b] cmd=W off=0x18 len=8 cq_q=1 sc_t=5937359511852 ps
[NIC mmio_b] cmd=W off=0x20 len=8 cq_q=1 sc_t=5937359759937 ps
[NIC mmio_b] cmd=W off=0x28 len=8 cq_q=1 sc_t=5937360008022 ps
[NIC mmio_b] cmd=W off=0x30 len=8 cq_q=1 sc_t=5937360256107 ps
[NIC mmio_b] cmd=W off=0x38 len=8 cq_q=1 sc_t=5937360504192 ps
[NIC mmio_b] cmd=W off=0x0 len=8 cq_q=1 sc_t=5937361745283 ps
[NIC mmio_b] cmd=W off=0x8 len=8 cq_q=1 sc_t=5937361993368 ps
[NIC mmio_b] cmd=W off=0x10 len=8 cq_q=1 sc_t=5937362241453 ps
[NIC mmio_b] cmd=W off=0x18 len=8 cq_q=1 sc_t=5937362489538 ps
[NIC mmio_b] cmd=W off=0x20 len=8 cq_q=1 sc_t=5937362737623 ps
[NIC mmio_b] cmd=W off=0x28 len=8 cq_q=1 sc_t=5937362985708 ps
[NIC mmio_b] cmd=W off=0x30 len=8 cq_q=1 sc_t=5937363233793 ps
[NIC mmio_b] cmd=W off=0x38 len=8 cq_q=1 sc_t=5937363481878 ps
[NIC wire_tx_tap #11] sc_t=5937363481878 ps
[NIC wire_rx_b #11] sc_t=5937363481878 ps cqe_q=1
[NIC wire_tx_tap #12] sc_t=5937363481878 ps
[NIC wire_rx_b #12] sc_t=5937363481878 ps cqe_q=1
[NIC wire_tx_tap #13] sc_t=5937363481878 ps
[NIC wire_rx_b #13] sc_t=5937363481878 ps cqe_q=1
[NIC wire_tx_tap #14] sc_t=5937363481878 ps
[NIC wire_rx_b #14] sc_t=5937363481878 ps cqe_q=1
[NIC wire_tx_tap #15] sc_t=5937363481878 ps
[NIC wire_rx_b #15] sc_t=5937363481878 ps cqe_q=1
[NIC cqe_tap #5] sc_t=5937363481878 ps q=2
[NIC cqe_tap #6] sc_t=5937363481878 ps q=3
[NIC wire_rx_b #15] drained, cqe_q=3 cycles=2
[NIC wire_rx_b #15] drained, cqe_q=3 cycles=2
[NIC wire_rx_b #15] drained, cqe_q=3 cycles=3
[NIC wire_rx_b #15] drained, cqe_q=3 cycles=3
[NIC wire_rx_b #15] drained, cqe_q=3 cycles=3
[NIC wire_tx_tap #16] sc_t=5938322814918 ps
[NIC wire_rx_b #16] sc_t=5938322814918 ps cqe_q=1
[NIC wire_tx_tap #17] sc_t=5938322814918 ps
[NIC wire_tx_tap #18] sc_t=5938322814918 ps
[NIC wire_tx_tap #19] sc_t=5938322814918 ps
[NIC wire_tx_tap #20] sc_t=5938322814918 ps
[NIC cqe_tap #7] sc_t=5938322814918 ps q=2
[NIC cqe_tap #8] sc_t=5938322814918 ps q=3
[NIC wire_tx_tap #21] sc_t=5938326391338 ps
[NIC wire_tx_tap #22] sc_t=5938326391338 ps
[NIC wire_tx_tap #23] sc_t=5938326391338 ps
[NIC wire_tx_tap #24] sc_t=5938326391338 ps
[NIC wire_tx_tap #25] sc_t=5938326391338 ps
[NIC cqe_tap #9] sc_t=5938326391338 ps q=2
[NIC cqe_tap #10] sc_t=5938326391338 ps q=3
[NIC wire_tx_tap #26] sc_t=5938329967758 ps
[NIC wire_tx_tap #27] sc_t=5938329967758 ps
[NIC wire_tx_tap #28] sc_t=5938329967758 ps
[NIC wire_tx_tap #29] sc_t=5938329967758 ps
[NIC wire_tx_tap #30] sc_t=5938329967758 ps
[NIC cqe_tap #11] sc_t=5938329967758 ps q=2
[NIC cqe_tap #12] sc_t=5938329967758 ps q=3
[NIC wire_tx_tap #31] sc_t=5938333544178 ps
[NIC wire_tx_tap #32] sc_t=5938333544178 ps
[NIC cqe_tap #13] sc_t=5938333544178 ps q=2
[NIC cqe_tap #14] sc_t=5938333544178 ps q=3
[NIC cqe_tap #15] sc_t=5939264144646 ps q=2
[NIC cqe_tap #16] sc_t=5939264144646 ps q=3
[NIC cqe_tap #17] sc_t=5939322709023 ps q=2
[NIC cqe_tap #18] sc_t=5939322709023 ps q=3
[NIC_DECOMP] drains=64 cum_cycles=38 ethdec=27 jsched=11
[NIC cqe_tap #19] sc_t=5939381273400 ps q=2
[NIC cqe_tap #20] sc_t=5939381273400 ps q=3
[NIC cqe_tap #21] sc_t=5939439837777 ps q=2
[NIC cqe_tap #22] sc_t=5939439837777 ps q=3
[NIC cqe_tap #23] sc_t=5940250211925 ps q=2
[NIC cqe_tap #24] sc_t=5940250211925 ps q=3
[NIC cqe_tap #25] sc_t=5940386339994 ps q=2
[NIC cqe_tap #26] sc_t=5940386339994 ps q=3
[NIC cqe_tap #27] sc_t=5940522468063 ps q=2
[NIC cqe_tap #28] sc_t=5940522468063 ps q=3
[NIC cqe_tap #29] sc_t=5940658596132 ps q=2
[NIC cqe_tap #30] sc_t=5940658596132 ps q=3
[NIC cqe_tap #31] sc_t=5942218771062 ps q=2
[NIC cqe_tap #32] sc_t=5942218771062 ps q=3
[NIC cqe_tap #33] sc_t=5942222347482 ps q=2
[NIC cqe_tap #34] sc_t=5942222347482 ps q=3
[NIC cqe_tap #35] sc_t=5942225923902 ps q=2
[NIC cqe_tap #36] sc_t=5942225923902 ps q=3
[NIC cqe_tap #37] sc_t=5942229500322 ps q=2
[NIC cqe_tap #38] sc_t=5942229500322 ps q=3
[NIC cqe_tap #39] sc_t=5942233076742 ps q=2
[NIC cqe_tap #40] sc_t=5942233076742 ps q=3
[NIC cqe_tap #41] sc_t=5942236653162 ps q=2
[NIC cqe_tap #42] sc_t=5942236653162 ps q=3
[NIC cqe_tap #43] sc_t=5942240229582 ps q=2
[NIC cqe_tap #44] sc_t=5942240229582 ps q=3
[NIC cqe_tap #45] sc_t=5942243806002 ps q=2
[NIC cqe_tap #46] sc_t=5942243806002 ps q=3
[NIC cqe_tap #47] sc_t=5942247382422 ps q=2
[NIC cqe_tap #48] sc_t=5942247382422 ps q=3
[NIC cqe_tap #49] sc_t=5942250958842 ps q=2
[NIC cqe_tap #50] sc_t=5942250958842 ps q=3
[NIC cqe_tap #51] sc_t=5942254535262 ps q=2
[NIC cqe_tap #52] sc_t=5942254535262 ps q=3
[NIC cqe_tap #53] sc_t=5942258111682 ps q=2
[NIC cqe_tap #54] sc_t=5942258111682 ps q=3
[NIC cqe_tap #55] sc_t=5942261688102 ps q=2
[NIC cqe_tap #56] sc_t=5942261688102 ps q=3
[NIC cqe_tap #57] sc_t=5942265264522 ps q=2
[NIC cqe_tap #58] sc_t=5942265264522 ps q=3
[NIC cqe_tap #59] sc_t=5942268840942 ps q=2
[NIC cqe_tap #60] sc_t=5942268840942 ps q=3
[NIC cqe_tap #61] sc_t=5942272417362 ps q=2
[NIC cqe_tap #62] sc_t=5942272417362 ps q=3
[NIC cqe_tap #63] sc_t=5943186076788 ps q=2
[NIC cqe_tap #64] sc_t=5943186076788 ps q=3
[NIC cqe_tap #65] sc_t=5943244641165 ps q=2
[NIC cqe_tap #66] sc_t=5943244641165 ps q=3
[NIC cqe_tap #67] sc_t=5943303205542 ps q=2
[NIC cqe_tap #68] sc_t=5943303205542 ps q=3
[NIC cqe_tap #69] sc_t=5943361769919 ps q=2
[NIC cqe_tap #70] sc_t=5943361769919 ps q=3
[NIC cqe_tap #71] sc_t=5943420334296 ps q=2
[NIC cqe_tap #72] sc_t=5943420334296 ps q=3
[NIC cqe_tap #73] sc_t=5943478898673 ps q=2
[NIC cqe_tap #74] sc_t=5943478898673 ps q=3
[NIC cqe_tap #75] sc_t=5943537463050 ps q=2
[NIC cqe_tap #76] sc_t=5943537463050 ps q=3
[NIC cqe_tap #77] sc_t=5943596027427 ps q=2
[NIC cqe_tap #78] sc_t=5943596027427 ps q=3
[NIC cqe_tap #79] sc_t=5943654591804 ps q=2
[NIC cqe_tap #80] sc_t=5943654591804 ps q=3
[NIC cqe_tap #81] sc_t=5943713156181 ps q=2
[NIC cqe_tap #82] sc_t=5943713156181 ps q=3
[NIC cqe_tap #83] sc_t=5943771720558 ps q=2
[NIC cqe_tap #84] sc_t=5943771720558 ps q=3
[NIC cqe_tap #85] sc_t=5943830284935 ps q=2
[NIC cqe_tap #86] sc_t=5943830284935 ps q=3
[NIC cqe_tap #87] sc_t=5943888849312 ps q=2
[NIC cqe_tap #88] sc_t=5943888849312 ps q=3
[NIC cqe_tap #89] sc_t=5943947413689 ps q=2
[NIC cqe_tap #90] sc_t=5943947413689 ps q=3
[NIC cqe_tap #91] sc_t=5944005978066 ps q=2
[NIC cqe_tap #92] sc_t=5944005978066 ps q=3
[NIC cqe_tap #93] sc_t=5944064542443 ps q=2
[NIC cqe_tap #94] sc_t=5944064542443 ps q=3
[NIC cqe_tap #95] sc_t=5944931429355 ps q=2
[NIC cqe_tap #96] sc_t=5944931429355 ps q=3
[NIC cqe_tap #97] sc_t=5945698206477 ps q=2
[NIC cqe_tap #98] sc_t=5945698206477 ps q=3
[NIC cqe_tap #99] sc_t=5945834334546 ps q=2
[NIC cqe_tap #100] sc_t=5945834334546 ps q=3
[NIC cqe_tap #101] sc_t=5945970462615 ps q=2
[NIC cqe_tap #102] sc_t=5945970462615 ps q=3
[NIC cqe_tap #103] sc_t=5946106590684 ps q=2
[NIC cqe_tap #104] sc_t=5946106590684 ps q=3
[NIC cqe_tap #105] sc_t=5946242718753 ps q=2
[NIC cqe_tap #106] sc_t=5946242718753 ps q=3
[NIC cqe_tap #107] sc_t=5946378846822 ps q=2
[NIC cqe_tap #108] sc_t=5946378846822 ps q=3
[NIC cqe_tap #109] sc_t=5946514974891 ps q=2
[NIC cqe_tap #110] sc_t=5946514974891 ps q=3
[NIC cqe_tap #111] sc_t=5946651102960 ps q=2
[NIC cqe_tap #112] sc_t=5946651102960 ps q=3
[NIC cqe_tap #113] sc_t=5946787231029 ps q=2
[NIC cqe_tap #114] sc_t=5946787231029 ps q=3
[NIC cqe_tap #115] sc_t=5946923359098 ps q=2
[NIC cqe_tap #116] sc_t=5946923359098 ps q=3
[NIC cqe_tap #117] sc_t=5947059487167 ps q=2
[NIC cqe_tap #118] sc_t=5947059487167 ps q=3
[NIC cqe_tap #119] sc_t=5947195615236 ps q=2
[NIC cqe_tap #120] sc_t=5947195615236 ps q=3
[NIC cqe_tap #121] sc_t=5947331743305 ps q=2
[NIC cqe_tap #122] sc_t=5947331743305 ps q=3
[NIC cqe_tap #123] sc_t=5947467871374 ps q=2
[NIC cqe_tap #124] sc_t=5947467871374 ps q=3
[NIC cqe_tap #125] sc_t=5947603999443 ps q=2
[NIC cqe_tap #126] sc_t=5947603999443 ps q=3
[NIC cqe_tap #127] sc_t=5948575302168 ps q=2
[NIC cqe_tap #128] sc_t=5948575302168 ps q=3
[NIC_DECOMP] drains=448 cum_cycles=257 ethdec=192 jsched=65
[NIC cqe_tap #129] sc_t=5948578878588 ps q=2
[NIC cqe_tap #130] sc_t=5948578878588 ps q=3
[NIC cqe_tap #131] sc_t=5948582455008 ps q=2
[NIC cqe_tap #132] sc_t=5948582455008 ps q=3
[NIC cqe_tap #133] sc_t=5948586031428 ps q=2
[NIC cqe_tap #134] sc_t=5948586031428 ps q=3
[NIC cqe_tap #135] sc_t=5948589607848 ps q=2
[NIC cqe_tap #136] sc_t=5948589607848 ps q=3
[NIC cqe_tap #137] sc_t=5948593184268 ps q=2
[NIC cqe_tap #138] sc_t=5948593184268 ps q=3
[NIC cqe_tap #139] sc_t=5948596760688 ps q=2
[NIC cqe_tap #140] sc_t=5948596760688 ps q=3
[NIC cqe_tap #141] sc_t=5948600337108 ps q=2
[NIC cqe_tap #142] sc_t=5948600337108 ps q=3
[NIC cqe_tap #143] sc_t=5948603913528 ps q=2
[NIC cqe_tap #144] sc_t=5948603913528 ps q=3
[NIC cqe_tap #145] sc_t=5948607489948 ps q=2
[NIC cqe_tap #146] sc_t=5948607489948 ps q=3
[NIC_DECOMP] drains=512 cum_cycles=294 ethdec=219 jsched=75
[NIC cqe_tap #147] sc_t=5948611066368 ps q=2
[NIC cqe_tap #148] sc_t=5948611066368 ps q=3
[NIC cqe_tap #149] sc_t=5948614642788 ps q=2
[NIC cqe_tap #150] sc_t=5948614642788 ps q=3
[NIC cqe_tap #151] sc_t=5948618219208 ps q=2
[NIC cqe_tap #152] sc_t=5948618219208 ps q=3
[NIC cqe_tap #153] sc_t=5948621795628 ps q=2
[NIC cqe_tap #154] sc_t=5948621795628 ps q=3
[NIC cqe_tap #155] sc_t=5948625372048 ps q=2
[NIC cqe_tap #156] sc_t=5948625372048 ps q=3
[NIC cqe_tap #157] sc_t=5948628948468 ps q=2
[NIC cqe_tap #158] sc_t=5948628948468 ps q=3
[NIC cqe_tap #159] sc_t=5948632524888 ps q=2
[NIC cqe_tap #160] sc_t=5948632524888 ps q=3
[NIC cqe_tap #161] sc_t=5948636101308 ps q=2
[NIC cqe_tap #162] sc_t=5948636101308 ps q=3
[NIC cqe_tap #163] sc_t=5948639677728 ps q=2
[NIC cqe_tap #164] sc_t=5948639677728 ps q=3
[NIC cqe_tap #165] sc_t=5948643254148 ps q=2
[NIC cqe_tap #166] sc_t=5948643254148 ps q=3
[NIC cqe_tap #167] sc_t=5948646830568 ps q=2
[NIC cqe_tap #168] sc_t=5948646830568 ps q=3
[NIC cqe_tap #169] sc_t=5948650406988 ps q=2
[NIC cqe_tap #170] sc_t=5948650406988 ps q=3
[NIC cqe_tap #171] sc_t=5948653983408 ps q=2
[NIC cqe_tap #172] sc_t=5948653983408 ps q=3
[NIC cqe_tap #173] sc_t=5948657559828 ps q=2
[NIC cqe_tap #174] sc_t=5948657559828 ps q=3
[NIC cqe_tap #175] sc_t=5948661136248 ps q=2
[NIC cqe_tap #176] sc_t=5948661136248 ps q=3
[NIC cqe_tap #177] sc_t=5948664712668 ps q=2
[NIC cqe_tap #178] sc_t=5948664712668 ps q=3
[NIC cqe_tap #179] sc_t=5948668289088 ps q=2
[NIC cqe_tap #180] sc_t=5948668289088 ps q=3
[NIC cqe_tap #181] sc_t=5948671865508 ps q=2
[NIC cqe_tap #182] sc_t=5948671865508 ps q=3
[NIC cqe_tap #183] sc_t=5948675441928 ps q=2
[NIC cqe_tap #184] sc_t=5948675441928 ps q=3
[NIC cqe_tap #185] sc_t=5948679018348 ps q=2
[NIC cqe_tap #186] sc_t=5948679018348 ps q=3
[NIC cqe_tap #187] sc_t=5948682594768 ps q=2
[NIC cqe_tap #188] sc_t=5948682594768 ps q=3
[NIC cqe_tap #189] sc_t=5948686171188 ps q=2
[NIC cqe_tap #190] sc_t=5948686171188 ps q=3
[NIC cqe_tap #191] sc_t=5948689747608 ps q=2
[NIC cqe_tap #192] sc_t=5948689747608 ps q=3
[NIC cqe_tap #193] sc_t=5948693324028 ps q=2
[NIC cqe_tap #194] sc_t=5948693324028 ps q=3
[NIC cqe_tap #195] sc_t=5948696900448 ps q=2
[NIC cqe_tap #196] sc_t=5948696900448 ps q=3
[NIC cqe_tap #197] sc_t=5948700476868 ps q=2
[NIC cqe_tap #198] sc_t=5948700476868 ps q=3
[NIC cqe_tap #199] sc_t=5948704053288 ps q=2
[NIC cqe_tap #200] sc_t=5948704053288 ps q=3
[NIC cqe_tap #201] sc_t=5948707629708 ps q=2
[NIC cqe_tap #202] sc_t=5948707629708 ps q=3
[NIC cqe_tap #203] sc_t=5948711206128 ps q=2
[NIC cqe_tap #204] sc_t=5948711206128 ps q=3
[NIC cqe_tap #205] sc_t=5948714782548 ps q=2
[NIC cqe_tap #206] sc_t=5948714782548 ps q=3
[NIC cqe_tap #207] sc_t=5948718358968 ps q=2
[NIC cqe_tap #208] sc_t=5948718358968 ps q=3
[NIC cqe_tap #209] sc_t=5948721935388 ps q=2
[NIC cqe_tap #210] sc_t=5948721935388 ps q=3
[NIC cqe_tap #211] sc_t=5948725511808 ps q=2
[NIC cqe_tap #212] sc_t=5948725511808 ps q=3
[NIC cqe_tap #213] sc_t=5948729088228 ps q=2
[NIC cqe_tap #214] sc_t=5948729088228 ps q=3
[NIC cqe_tap #215] sc_t=5948732664648 ps q=2
[NIC cqe_tap #216] sc_t=5948732664648 ps q=3
[NIC cqe_tap #217] sc_t=5948736241068 ps q=2
[NIC cqe_tap #218] sc_t=5948736241068 ps q=3
[NIC cqe_tap #219] sc_t=5948739817488 ps q=2
[NIC cqe_tap #220] sc_t=5948739817488 ps q=3
[NIC cqe_tap #221] sc_t=5948743393908 ps q=2
[NIC cqe_tap #222] sc_t=5948743393908 ps q=3
[NIC cqe_tap #223] sc_t=5948746970328 ps q=2
[NIC cqe_tap #224] sc_t=5948746970328 ps q=3
[NIC cqe_tap #225] sc_t=5948750546748 ps q=2
[NIC cqe_tap #226] sc_t=5948750546748 ps q=3
[NIC cqe_tap #227] sc_t=5948754123168 ps q=2
[NIC cqe_tap #228] sc_t=5948754123168 ps q=3
[NIC cqe_tap #229] sc_t=5948757699588 ps q=2
[NIC cqe_tap #230] sc_t=5948757699588 ps q=3
[NIC cqe_tap #231] sc_t=5948761276008 ps q=2
[NIC cqe_tap #232] sc_t=5948761276008 ps q=3
[NIC cqe_tap #233] sc_t=5948764852428 ps q=2
[NIC cqe_tap #234] sc_t=5948764852428 ps q=3
[NIC cqe_tap #235] sc_t=5948768428848 ps q=2
[NIC cqe_tap #236] sc_t=5948768428848 ps q=3
[NIC cqe_tap #237] sc_t=5948772005268 ps q=2
[NIC cqe_tap #238] sc_t=5948772005268 ps q=3
[NIC cqe_tap #239] sc_t=5948775581688 ps q=2
[NIC cqe_tap #240] sc_t=5948775581688 ps q=3
[NIC cqe_tap #241] sc_t=5948779158108 ps q=2
[NIC cqe_tap #242] sc_t=5948779158108 ps q=3
[NIC cqe_tap #243] sc_t=5948782734528 ps q=2
[NIC cqe_tap #244] sc_t=5948782734528 ps q=3
[NIC cqe_tap #245] sc_t=5948786310948 ps q=2
[NIC cqe_tap #246] sc_t=5948786310948 ps q=3
[NIC cqe_tap #247] sc_t=5948789887368 ps q=2
[NIC cqe_tap #248] sc_t=5948789887368 ps q=3
[NIC cqe_tap #249] sc_t=5948793463788 ps q=2
[NIC cqe_tap #250] sc_t=5948793463788 ps q=3
[NIC cqe_tap #251] sc_t=5948797040208 ps q=2
[NIC cqe_tap #252] sc_t=5948797040208 ps q=3
[NIC cqe_tap #253] sc_t=5948800616628 ps q=2
[NIC cqe_tap #254] sc_t=5948800616628 ps q=3
[NIC cqe_tap #255] sc_t=5950348146882 ps q=2
[NIC cqe_tap #256] sc_t=5950348146882 ps q=3
[NIC_DECOMP] drains=896 cum_cycles=513 ethdec=384 jsched=129
[NIC cqe_tap #257] sc_t=5950406711259 ps q=2
[NIC cqe_tap #258] sc_t=5950406711259 ps q=3
[NIC cqe_tap #259] sc_t=5950465275636 ps q=2
[NIC cqe_tap #260] sc_t=5950465275636 ps q=3
[NIC cqe_tap #261] sc_t=5950523840013 ps q=2
[NIC cqe_tap #262] sc_t=5950523840013 ps q=3
[NIC cqe_tap #263] sc_t=5950582404390 ps q=2
[NIC cqe_tap #264] sc_t=5950582404390 ps q=3
[NIC cqe_tap #265] sc_t=5950640968767 ps q=2
[NIC cqe_tap #266] sc_t=5950640968767 ps q=3
[NIC cqe_tap #267] sc_t=5950699533144 ps q=2
[NIC cqe_tap #268] sc_t=5950699533144 ps q=3
[NIC cqe_tap #269] sc_t=5950758097521 ps q=2
[NIC cqe_tap #270] sc_t=5950758097521 ps q=3
[NIC cqe_tap #271] sc_t=5950816661898 ps q=2
[NIC cqe_tap #272] sc_t=5950816661898 ps q=3
[NIC cqe_tap #273] sc_t=5950875226275 ps q=2
[NIC cqe_tap #274] sc_t=5950875226275 ps q=3
[NIC_DECOMP] drains=960 cum_cycles=550 ethdec=411 jsched=139
[NIC cqe_tap #275] sc_t=5950933790652 ps q=2
[NIC cqe_tap #276] sc_t=5950933790652 ps q=3
[NIC cqe_tap #277] sc_t=5950992355029 ps q=2
[NIC cqe_tap #278] sc_t=5950992355029 ps q=3
[NIC cqe_tap #279] sc_t=5951050919406 ps q=2
[NIC cqe_tap #280] sc_t=5951050919406 ps q=3
[NIC cqe_tap #281] sc_t=5951109483783 ps q=2
[NIC cqe_tap #282] sc_t=5951109483783 ps q=3
[NIC cqe_tap #283] sc_t=5951168048160 ps q=2
[NIC cqe_tap #284] sc_t=5951168048160 ps q=3
[NIC cqe_tap #285] sc_t=5951226612537 ps q=2
[NIC cqe_tap #286] sc_t=5951226612537 ps q=3
[NIC cqe_tap #287] sc_t=5951285176914 ps q=2
[NIC cqe_tap #288] sc_t=5951285176914 ps q=3
[NIC cqe_tap #289] sc_t=5951343741291 ps q=2
[NIC cqe_tap #290] sc_t=5951343741291 ps q=3
[NIC cqe_tap #291] sc_t=5951402305668 ps q=2
[NIC cqe_tap #292] sc_t=5951402305668 ps q=3
[NIC cqe_tap #293] sc_t=5951460870045 ps q=2
[NIC cqe_tap #294] sc_t=5951460870045 ps q=3
[NIC cqe_tap #295] sc_t=5951519434422 ps q=2
[NIC cqe_tap #296] sc_t=5951519434422 ps q=3
[NIC cqe_tap #297] sc_t=5951577998799 ps q=2
[NIC cqe_tap #298] sc_t=5951577998799 ps q=3
[NIC cqe_tap #299] sc_t=5951636563176 ps q=2
[NIC cqe_tap #300] sc_t=5951636563176 ps q=3
[NIC cqe_tap #301] sc_t=5951695127553 ps q=2
[NIC cqe_tap #302] sc_t=5951695127553 ps q=3
[NIC cqe_tap #303] sc_t=5951753691930 ps q=2
[NIC cqe_tap #304] sc_t=5951753691930 ps q=3
[NIC cqe_tap #305] sc_t=5951812256307 ps q=2
[NIC cqe_tap #306] sc_t=5951812256307 ps q=3
[NIC cqe_tap #307] sc_t=5951870820684 ps q=2
[NIC cqe_tap #308] sc_t=5951870820684 ps q=3
[NIC cqe_tap #309] sc_t=5951929385061 ps q=2
[NIC cqe_tap #310] sc_t=5951929385061 ps q=3
[NIC cqe_tap #311] sc_t=5951987949438 ps q=2
[NIC cqe_tap #312] sc_t=5951987949438 ps q=3
[NIC cqe_tap #313] sc_t=5952046513815 ps q=2
[NIC cqe_tap #314] sc_t=5952046513815 ps q=3
[NIC cqe_tap #315] sc_t=5952105078192 ps q=2
[NIC cqe_tap #316] sc_t=5952105078192 ps q=3
[NIC cqe_tap #317] sc_t=5952163642569 ps q=2
[NIC cqe_tap #318] sc_t=5952163642569 ps q=3
[NIC cqe_tap #319] sc_t=5952222206946 ps q=2
[NIC cqe_tap #320] sc_t=5952222206946 ps q=3
[NIC cqe_tap #321] sc_t=5952280771323 ps q=2
[NIC cqe_tap #322] sc_t=5952280771323 ps q=3
[NIC cqe_tap #323] sc_t=5952339335700 ps q=2
[NIC cqe_tap #324] sc_t=5952339335700 ps q=3
[NIC cqe_tap #325] sc_t=5952397900077 ps q=2
[NIC cqe_tap #326] sc_t=5952397900077 ps q=3
[NIC cqe_tap #327] sc_t=5952456464454 ps q=2
[NIC cqe_tap #328] sc_t=5952456464454 ps q=3
[NIC cqe_tap #329] sc_t=5952515028831 ps q=2
[NIC cqe_tap #330] sc_t=5952515028831 ps q=3
[NIC cqe_tap #331] sc_t=5952573593208 ps q=2
[NIC cqe_tap #332] sc_t=5952573593208 ps q=3
[NIC cqe_tap #333] sc_t=5952632157585 ps q=2
[NIC cqe_tap #334] sc_t=5952632157585 ps q=3
[NIC cqe_tap #335] sc_t=5952690721962 ps q=2
[NIC cqe_tap #336] sc_t=5952690721962 ps q=3
[NIC cqe_tap #337] sc_t=5952749286339 ps q=2
[NIC cqe_tap #338] sc_t=5952749286339 ps q=3
[NIC cqe_tap #339] sc_t=5952807850716 ps q=2
[NIC cqe_tap #340] sc_t=5952807850716 ps q=3
[NIC cqe_tap #341] sc_t=5952866415093 ps q=2
[NIC cqe_tap #342] sc_t=5952866415093 ps q=3
[NIC cqe_tap #343] sc_t=5952924979470 ps q=2
[NIC cqe_tap #344] sc_t=5952924979470 ps q=3
[NIC cqe_tap #345] sc_t=5952983543847 ps q=2
[NIC cqe_tap #346] sc_t=5952983543847 ps q=3
[NIC cqe_tap #347] sc_t=5953042108224 ps q=2
[NIC cqe_tap #348] sc_t=5953042108224 ps q=3
[NIC cqe_tap #349] sc_t=5953100672601 ps q=2
[NIC cqe_tap #350] sc_t=5953100672601 ps q=3
[NIC cqe_tap #351] sc_t=5953159236978 ps q=2
[NIC cqe_tap #352] sc_t=5953159236978 ps q=3
[NIC cqe_tap #353] sc_t=5953217801355 ps q=2
[NIC cqe_tap #354] sc_t=5953217801355 ps q=3
[NIC cqe_tap #355] sc_t=5953901308830 ps q=2
[NIC cqe_tap #356] sc_t=5953901308830 ps q=3
[NIC cqe_tap #357] sc_t=5953959873207 ps q=2
[NIC cqe_tap #358] sc_t=5953959873207 ps q=3
[NIC cqe_tap #359] sc_t=5954018437584 ps q=2
[NIC cqe_tap #360] sc_t=5954018437584 ps q=3
[NIC cqe_tap #361] sc_t=5954077001961 ps q=2
[NIC cqe_tap #362] sc_t=5954077001961 ps q=3
[NIC cqe_tap #363] sc_t=5954135566338 ps q=2
[NIC cqe_tap #364] sc_t=5954135566338 ps q=3
[NIC cqe_tap #365] sc_t=5954194130715 ps q=2
[NIC cqe_tap #366] sc_t=5954194130715 ps q=3
[NIC cqe_tap #367] sc_t=5954252695092 ps q=2
[NIC cqe_tap #368] sc_t=5954252695092 ps q=3
[NIC cqe_tap #369] sc_t=5954311259469 ps q=2
[NIC cqe_tap #370] sc_t=5954311259469 ps q=3
[NIC cqe_tap #371] sc_t=5954369823846 ps q=2
[NIC cqe_tap #372] sc_t=5954369823846 ps q=3
[NIC cqe_tap #373] sc_t=5954428388223 ps q=2
[NIC cqe_tap #374] sc_t=5954428388223 ps q=3
[NIC cqe_tap #375] sc_t=5954486952600 ps q=2
[NIC cqe_tap #376] sc_t=5954486952600 ps q=3
[NIC cqe_tap #377] sc_t=5954545516977 ps q=2
[NIC cqe_tap #378] sc_t=5954545516977 ps q=3
[NIC cqe_tap #379] sc_t=5954604081354 ps q=2
[NIC cqe_tap #380] sc_t=5954604081354 ps q=3
[NIC cqe_tap #381] sc_t=5954662645731 ps q=2
[NIC cqe_tap #382] sc_t=5954662645731 ps q=3
[NIC cqe_tap #383] sc_t=5955488924292 ps q=2
[NIC cqe_tap #384] sc_t=5955488924292 ps q=3
[NIC_DECOMP] drains=1344 cum_cycles=769 ethdec=576 jsched=193
[NIC cqe_tap #385] sc_t=5955625052361 ps q=2
[NIC cqe_tap #386] sc_t=5955625052361 ps q=3
[NIC cqe_tap #387] sc_t=5955761180430 ps q=2
[NIC cqe_tap #388] sc_t=5955761180430 ps q=3
[NIC cqe_tap #389] sc_t=5955897308499 ps q=2
[NIC cqe_tap #390] sc_t=5955897308499 ps q=3
[NIC cqe_tap #391] sc_t=5956033436568 ps q=2
[NIC cqe_tap #392] sc_t=5956033436568 ps q=3
[NIC cqe_tap #393] sc_t=5956169564637 ps q=2
[NIC cqe_tap #394] sc_t=5956169564637 ps q=3
[NIC cqe_tap #395] sc_t=5956305692706 ps q=2
[NIC cqe_tap #396] sc_t=5956305692706 ps q=3
[NIC cqe_tap #397] sc_t=5956441820775 ps q=2
[NIC cqe_tap #398] sc_t=5956441820775 ps q=3
[NIC cqe_tap #399] sc_t=5956577948844 ps q=2
[NIC cqe_tap #400] sc_t=5956577948844 ps q=3
[NIC cqe_tap #401] sc_t=5956714076913 ps q=2
[NIC cqe_tap #402] sc_t=5956714076913 ps q=3
[NIC_DECOMP] drains=1408 cum_cycles=806 ethdec=603 jsched=203
[NIC cqe_tap #403] sc_t=5956850204982 ps q=2
[NIC cqe_tap #404] sc_t=5956850204982 ps q=3
[NIC cqe_tap #405] sc_t=5956986333051 ps q=2
[NIC cqe_tap #406] sc_t=5956986333051 ps q=3
[NIC cqe_tap #407] sc_t=5957122461120 ps q=2
[NIC cqe_tap #408] sc_t=5957122461120 ps q=3
[NIC cqe_tap #409] sc_t=5957258589189 ps q=2
[NIC cqe_tap #410] sc_t=5957258589189 ps q=3
[NIC cqe_tap #411] sc_t=5957394717258 ps q=2
[NIC cqe_tap #412] sc_t=5957394717258 ps q=3
[NIC cqe_tap #413] sc_t=5958152026191 ps q=2
[NIC cqe_tap #414] sc_t=5958152026191 ps q=3
[NIC cqe_tap #415] sc_t=5958288154260 ps q=2
[NIC cqe_tap #416] sc_t=5958288154260 ps q=3
[NIC cqe_tap #417] sc_t=5958424282329 ps q=2
[NIC cqe_tap #418] sc_t=5958424282329 ps q=3
[NIC cqe_tap #419] sc_t=5958560410398 ps q=2
[NIC cqe_tap #420] sc_t=5958560410398 ps q=3
[NIC cqe_tap #421] sc_t=5958696538467 ps q=2
[NIC cqe_tap #422] sc_t=5958696538467 ps q=3
[NIC cqe_tap #423] sc_t=5958832666536 ps q=2
[NIC cqe_tap #424] sc_t=5958832666536 ps q=3
[NIC cqe_tap #425] sc_t=5958968794605 ps q=2
[NIC cqe_tap #426] sc_t=5958968794605 ps q=3
[NIC cqe_tap #427] sc_t=5959104922674 ps q=2
[NIC cqe_tap #428] sc_t=5959104922674 ps q=3
[NIC cqe_tap #429] sc_t=5959241050743 ps q=2
[NIC cqe_tap #430] sc_t=5959241050743 ps q=3
[NIC cqe_tap #431] sc_t=5959377178812 ps q=2
[NIC cqe_tap #432] sc_t=5959377178812 ps q=3
[NIC cqe_tap #433] sc_t=5959513306881 ps q=2
[NIC cqe_tap #434] sc_t=5959513306881 ps q=3
[NIC cqe_tap #435] sc_t=5959649434950 ps q=2
[NIC cqe_tap #436] sc_t=5959649434950 ps q=3
[NIC cqe_tap #437] sc_t=5959785563019 ps q=2
[NIC cqe_tap #438] sc_t=5959785563019 ps q=3
[NIC cqe_tap #439] sc_t=5959921691088 ps q=2
[NIC cqe_tap #440] sc_t=5959921691088 ps q=3
[NIC cqe_tap #441] sc_t=5960057819157 ps q=2
[NIC cqe_tap #442] sc_t=5960057819157 ps q=3
[NIC cqe_tap #443] sc_t=5960193947226 ps q=2
[NIC cqe_tap #444] sc_t=5960193947226 ps q=3
[NIC cqe_tap #445] sc_t=5960330075295 ps q=2
[NIC cqe_tap #446] sc_t=5960330075295 ps q=3
[NIC cqe_tap #447] sc_t=5960466203364 ps q=2
[NIC cqe_tap #448] sc_t=5960466203364 ps q=3
[NIC cqe_tap #449] sc_t=5960602331433 ps q=2
[NIC cqe_tap #450] sc_t=5960602331433 ps q=3
[NIC cqe_tap #451] sc_t=5960738459502 ps q=2
[NIC cqe_tap #452] sc_t=5960738459502 ps q=3
[NIC cqe_tap #453] sc_t=5960874587571 ps q=2
[NIC cqe_tap #454] sc_t=5960874587571 ps q=3
[NIC cqe_tap #455] sc_t=5961010715640 ps q=2
[NIC cqe_tap #456] sc_t=5961010715640 ps q=3
[NIC cqe_tap #457] sc_t=5961146843709 ps q=2
[NIC cqe_tap #458] sc_t=5961146843709 ps q=3
[NIC cqe_tap #459] sc_t=5961282971778 ps q=2
[NIC cqe_tap #460] sc_t=5961282971778 ps q=3
[NIC cqe_tap #461] sc_t=5961419099847 ps q=2
[NIC cqe_tap #462] sc_t=5961419099847 ps q=3
[NIC cqe_tap #463] sc_t=5961555227916 ps q=2
[NIC cqe_tap #464] sc_t=5961555227916 ps q=3
[NIC cqe_tap #465] sc_t=5962278068019 ps q=2
[NIC cqe_tap #466] sc_t=5962278068019 ps q=3
[NIC cqe_tap #467] sc_t=5962414196088 ps q=2
[NIC cqe_tap #468] sc_t=5962414196088 ps q=3
[NIC cqe_tap #469] sc_t=5962550324157 ps q=2
[NIC cqe_tap #470] sc_t=5962550324157 ps q=3
[NIC cqe_tap #471] sc_t=5962686452226 ps q=2
[NIC cqe_tap #472] sc_t=5962686452226 ps q=3
[NIC cqe_tap #473] sc_t=5962822580295 ps q=2
[NIC cqe_tap #474] sc_t=5962822580295 ps q=3
[NIC cqe_tap #475] sc_t=5962958708364 ps q=2
[NIC cqe_tap #476] sc_t=5962958708364 ps q=3
[NIC cqe_tap #477] sc_t=5963094836433 ps q=2
[NIC cqe_tap #478] sc_t=5963094836433 ps q=3
[NIC cqe_tap #479] sc_t=5963230964502 ps q=2
[NIC cqe_tap #480] sc_t=5963230964502 ps q=3
[NIC cqe_tap #481] sc_t=5963367092571 ps q=2
[NIC cqe_tap #482] sc_t=5963367092571 ps q=3
[NIC cqe_tap #483] sc_t=5963503220640 ps q=2
[NIC cqe_tap #484] sc_t=5963503220640 ps q=3
[NIC cqe_tap #485] sc_t=5963639348709 ps q=2
[NIC cqe_tap #486] sc_t=5963639348709 ps q=3
[NIC cqe_tap #487] sc_t=5963775476778 ps q=2
[NIC cqe_tap #488] sc_t=5963775476778 ps q=3
[NIC cqe_tap #489] sc_t=5963911604847 ps q=2
[NIC cqe_tap #490] sc_t=5963911604847 ps q=3
[NIC cqe_tap #491] sc_t=5964047732916 ps q=2
[NIC cqe_tap #492] sc_t=5964047732916 ps q=3
[NIC cqe_tap #493] sc_t=5964183860985 ps q=2
[NIC cqe_tap #494] sc_t=5964183860985 ps q=3
[NIC cqe_tap #495] sc_t=5964319989054 ps q=2
[NIC cqe_tap #496] sc_t=5964319989054 ps q=3
[NIC cqe_tap #497] sc_t=5964456117123 ps q=2
[NIC cqe_tap #498] sc_t=5964456117123 ps q=3
[NIC cqe_tap #499] sc_t=5964592245192 ps q=2
[NIC cqe_tap #500] sc_t=5964592245192 ps q=3
[NIC cqe_tap #501] sc_t=5964728373261 ps q=2
[NIC cqe_tap #502] sc_t=5964728373261 ps q=3
[NIC cqe_tap #503] sc_t=5964864501330 ps q=2
[NIC cqe_tap #504] sc_t=5964864501330 ps q=3
[NIC cqe_tap #505] sc_t=5965000629399 ps q=2
[NIC cqe_tap #506] sc_t=5965000629399 ps q=3
[NIC cqe_tap #507] sc_t=5965136757468 ps q=2
[NIC cqe_tap #508] sc_t=5965136757468 ps q=3
[NIC cqe_tap #509] sc_t=5965272885537 ps q=2
[NIC cqe_tap #510] sc_t=5965272885537 ps q=3
[NIC cqe_tap #511] sc_t=5966856813357 ps q=2
[NIC cqe_tap #512] sc_t=5966856813357 ps q=3
[NIC_DECOMP] drains=1792 cum_cycles=1025 ethdec=768 jsched=257
[NIC cqe_tap #513] sc_t=5966860637529 ps q=2
[NIC cqe_tap #514] sc_t=5966860637529 ps q=3
[NIC cqe_tap #515] sc_t=5966864461701 ps q=2
[NIC cqe_tap #516] sc_t=5966864461701 ps q=3
[NIC cqe_tap #517] sc_t=5966868285873 ps q=2
[NIC cqe_tap #518] sc_t=5966868285873 ps q=3
[NIC cqe_tap #519] sc_t=5966872110045 ps q=2
[NIC cqe_tap #520] sc_t=5966872110045 ps q=3
[NIC cqe_tap #521] sc_t=5966875934217 ps q=2
[NIC cqe_tap #522] sc_t=5966875934217 ps q=3
[NIC cqe_tap #523] sc_t=5966879758389 ps q=2
[NIC cqe_tap #524] sc_t=5966879758389 ps q=3
[NIC cqe_tap #525] sc_t=5966883582561 ps q=2
[NIC cqe_tap #526] sc_t=5966883582561 ps q=3
[NIC cqe_tap #527] sc_t=5966887406733 ps q=2
[NIC cqe_tap #528] sc_t=5966887406733 ps q=3
[NIC cqe_tap #529] sc_t=5966891230905 ps q=2
[NIC cqe_tap #530] sc_t=5966891230905 ps q=3
[NIC_DECOMP] drains=1856 cum_cycles=1062 ethdec=795 jsched=267
[NIC cqe_tap #531] sc_t=5966895055077 ps q=2
[NIC cqe_tap #532] sc_t=5966895055077 ps q=3
[NIC cqe_tap #533] sc_t=5966898879249 ps q=2
[NIC cqe_tap #534] sc_t=5966898879249 ps q=3
[NIC cqe_tap #535] sc_t=5966902703421 ps q=2
[NIC cqe_tap #536] sc_t=5966902703421 ps q=3
[NIC cqe_tap #537] sc_t=5966906527593 ps q=2
[NIC cqe_tap #538] sc_t=5966906527593 ps q=3
[NIC cqe_tap #539] sc_t=5966910351765 ps q=2
[NIC cqe_tap #540] sc_t=5966910351765 ps q=3
[NIC cqe_tap #541] sc_t=5966914175937 ps q=2
[NIC cqe_tap #542] sc_t=5966914175937 ps q=3
[NIC cqe_tap #543] sc_t=5967829457073 ps q=2
[NIC cqe_tap #544] sc_t=5967829457073 ps q=3
[NIC cqe_tap #545] sc_t=5967888104034 ps q=2
[NIC cqe_tap #546] sc_t=5967888104034 ps q=3
[NIC cqe_tap #547] sc_t=5967946750995 ps q=2
[NIC cqe_tap #548] sc_t=5967946750995 ps q=3
[NIC cqe_tap #549] sc_t=5968005397956 ps q=2
[NIC cqe_tap #550] sc_t=5968005397956 ps q=3
[NIC cqe_tap #551] sc_t=5968064044917 ps q=2
[NIC cqe_tap #552] sc_t=5968064044917 ps q=3
[NIC cqe_tap #553] sc_t=5968122691878 ps q=2
[NIC cqe_tap #554] sc_t=5968122691878 ps q=3
[NIC cqe_tap #555] sc_t=5968181338839 ps q=2
[NIC cqe_tap #556] sc_t=5968181338839 ps q=3
[NIC cqe_tap #557] sc_t=5968239985800 ps q=2
[NIC cqe_tap #558] sc_t=5968239985800 ps q=3
[NIC cqe_tap #559] sc_t=5968298632761 ps q=2
[NIC cqe_tap #560] sc_t=5968298632761 ps q=3
[NIC cqe_tap #561] sc_t=5968357279722 ps q=2
[NIC cqe_tap #562] sc_t=5968357279722 ps q=3
[NIC cqe_tap #563] sc_t=5968415926683 ps q=2
[NIC cqe_tap #564] sc_t=5968415926683 ps q=3
[NIC cqe_tap #565] sc_t=5968474573644 ps q=2
[NIC cqe_tap #566] sc_t=5968474573644 ps q=3
[NIC cqe_tap #567] sc_t=5968533220605 ps q=2
[NIC cqe_tap #568] sc_t=5968533220605 ps q=3
[NIC cqe_tap #569] sc_t=5968591867566 ps q=2
[NIC cqe_tap #570] sc_t=5968591867566 ps q=3
[NIC cqe_tap #571] sc_t=5968650514527 ps q=2
[NIC cqe_tap #572] sc_t=5968650514527 ps q=3
[NIC cqe_tap #573] sc_t=5968709161488 ps q=2
[NIC cqe_tap #574] sc_t=5968709161488 ps q=3
[NIC cqe_tap #575] sc_t=5969606458626 ps q=2
[NIC cqe_tap #576] sc_t=5969606458626 ps q=3
[NIC cqe_tap #577] sc_t=5969610282798 ps q=2
[NIC cqe_tap #578] sc_t=5969610282798 ps q=3
[NIC cqe_tap #579] sc_t=5969614106970 ps q=2
[NIC cqe_tap #580] sc_t=5969614106970 ps q=3
[NIC cqe_tap #581] sc_t=5969617931142 ps q=2
[NIC cqe_tap #582] sc_t=5969617931142 ps q=3
[NIC cqe_tap #583] sc_t=5969621755314 ps q=2
[NIC cqe_tap #584] sc_t=5969621755314 ps q=3
[NIC cqe_tap #585] sc_t=5969625579486 ps q=2
[NIC cqe_tap #586] sc_t=5969625579486 ps q=3
[NIC cqe_tap #587] sc_t=5969629403658 ps q=2
[NIC cqe_tap #588] sc_t=5969629403658 ps q=3
[NIC cqe_tap #589] sc_t=5969633227830 ps q=2
[NIC cqe_tap #590] sc_t=5969633227830 ps q=3
[NIC cqe_tap #591] sc_t=5969637052002 ps q=2
[NIC cqe_tap #592] sc_t=5969637052002 ps q=3
[NIC cqe_tap #593] sc_t=5969640876174 ps q=2
[NIC cqe_tap #594] sc_t=5969640876174 ps q=3
[NIC cqe_tap #595] sc_t=5969644700346 ps q=2
[NIC cqe_tap #596] sc_t=5969644700346 ps q=3
[NIC cqe_tap #597] sc_t=5969648524518 ps q=2
[NIC cqe_tap #598] sc_t=5969648524518 ps q=3
[NIC cqe_tap #599] sc_t=5969652348690 ps q=2
[NIC cqe_tap #600] sc_t=5969652348690 ps q=3
[NIC cqe_tap #601] sc_t=5969656172862 ps q=2
[NIC cqe_tap #602] sc_t=5969656172862 ps q=3
[NIC cqe_tap #603] sc_t=5969659997034 ps q=2
[NIC cqe_tap #604] sc_t=5969659997034 ps q=3
[NIC cqe_tap #605] sc_t=5969663821206 ps q=2
[NIC cqe_tap #606] sc_t=5969663821206 ps q=3
[NIC cqe_tap #607] sc_t=5971183632873 ps q=2
[NIC cqe_tap #608] sc_t=5971183632873 ps q=3
[NIC cqe_tap #609] sc_t=5971242279834 ps q=2
[NIC cqe_tap #610] sc_t=5971242279834 ps q=3
[NIC cqe_tap #611] sc_t=5971300926795 ps q=2
[NIC cqe_tap #612] sc_t=5971300926795 ps q=3
[NIC cqe_tap #613] sc_t=5971359573756 ps q=2
[NIC cqe_tap #614] sc_t=5971359573756 ps q=3
[NIC cqe_tap #615] sc_t=5971418220717 ps q=2
[NIC cqe_tap #616] sc_t=5971418220717 ps q=3
[NIC cqe_tap #617] sc_t=5971476867678 ps q=2
[NIC cqe_tap #618] sc_t=5971476867678 ps q=3
[NIC cqe_tap #619] sc_t=5971535514639 ps q=2
[NIC cqe_tap #620] sc_t=5971535514639 ps q=3
[NIC cqe_tap #621] sc_t=5971594161600 ps q=2
[NIC cqe_tap #622] sc_t=5971594161600 ps q=3
[NIC cqe_tap #623] sc_t=5971652808561 ps q=2
[NIC cqe_tap #624] sc_t=5971652808561 ps q=3
[NIC cqe_tap #625] sc_t=5971711455522 ps q=2
[NIC cqe_tap #626] sc_t=5971711455522 ps q=3
[NIC cqe_tap #627] sc_t=5971770102483 ps q=2
[NIC cqe_tap #628] sc_t=5971770102483 ps q=3
[NIC cqe_tap #629] sc_t=5971828749444 ps q=2
[NIC cqe_tap #630] sc_t=5971828749444 ps q=3
[NIC cqe_tap #631] sc_t=5971887396405 ps q=2
[NIC cqe_tap #632] sc_t=5971887396405 ps q=3
[NIC cqe_tap #633] sc_t=5971946043366 ps q=2
[NIC cqe_tap #634] sc_t=5971946043366 ps q=3
[NIC cqe_tap #635] sc_t=5972004690327 ps q=2
[NIC cqe_tap #636] sc_t=5972004690327 ps q=3
[NIC cqe_tap #637] sc_t=5972063337288 ps q=2
[NIC cqe_tap #638] sc_t=5972063337288 ps q=3
[NIC cqe_tap #639] sc_t=5972964610113 ps q=2
[NIC cqe_tap #640] sc_t=5972964610113 ps q=3
[NIC_DECOMP] drains=2240 cum_cycles=1281 ethdec=960 jsched=321
[NIC cqe_tap #641] sc_t=5972968434285 ps q=2
[NIC cqe_tap #642] sc_t=5972968434285 ps q=3
[NIC cqe_tap #643] sc_t=5972972258457 ps q=2
[NIC cqe_tap #644] sc_t=5972972258457 ps q=3
[NIC cqe_tap #645] sc_t=5972976082629 ps q=2
[NIC cqe_tap #646] sc_t=5972976082629 ps q=3
[NIC cqe_tap #647] sc_t=5972979906801 ps q=2
[NIC cqe_tap #648] sc_t=5972979906801 ps q=3
[NIC cqe_tap #649] sc_t=5972983730973 ps q=2
[NIC cqe_tap #650] sc_t=5972983730973 ps q=3
[NIC cqe_tap #651] sc_t=5972987555145 ps q=2
[NIC cqe_tap #652] sc_t=5972987555145 ps q=3
[NIC cqe_tap #653] sc_t=5972991379317 ps q=2
[NIC cqe_tap #654] sc_t=5972991379317 ps q=3
[NIC cqe_tap #655] sc_t=5972995203489 ps q=2
[NIC cqe_tap #656] sc_t=5972995203489 ps q=3
[NIC cqe_tap #657] sc_t=5972999027661 ps q=2
[NIC cqe_tap #658] sc_t=5972999027661 ps q=3
[NIC_DECOMP] drains=2304 cum_cycles=1318 ethdec=987 jsched=331
[NIC cqe_tap #659] sc_t=5973002851833 ps q=2
[NIC cqe_tap #660] sc_t=5973002851833 ps q=3
[NIC cqe_tap #661] sc_t=5973006676005 ps q=2
[NIC cqe_tap #662] sc_t=5973006676005 ps q=3
[NIC cqe_tap #663] sc_t=5973010500177 ps q=2
[NIC cqe_tap #664] sc_t=5973010500177 ps q=3
[NIC cqe_tap #665] sc_t=5973014324349 ps q=2
[NIC cqe_tap #666] sc_t=5973014324349 ps q=3
[NIC cqe_tap #667] sc_t=5973018148521 ps q=2
[NIC cqe_tap #668] sc_t=5973018148521 ps q=3
[NIC cqe_tap #669] sc_t=5973021972693 ps q=2
[NIC cqe_tap #670] sc_t=5973021972693 ps q=3
[NIC cqe_tap #671] sc_t=5973945247827 ps q=2
[NIC cqe_tap #672] sc_t=5973945247827 ps q=3
[NIC cqe_tap #673] sc_t=5974003894788 ps q=2
[NIC cqe_tap #674] sc_t=5974003894788 ps q=3
[NIC cqe_tap #675] sc_t=5974062541749 ps q=2
[NIC cqe_tap #676] sc_t=5974062541749 ps q=3
[NIC cqe_tap #677] sc_t=5974738604010 ps q=2
[NIC cqe_tap #678] sc_t=5974738604010 ps q=3
[NIC cqe_tap #679] sc_t=5974797250971 ps q=2
[NIC cqe_tap #680] sc_t=5974797250971 ps q=3
[NIC cqe_tap #681] sc_t=5974855897932 ps q=2
[NIC cqe_tap #682] sc_t=5974855897932 ps q=3
[NIC cqe_tap #683] sc_t=5974914544893 ps q=2
[NIC cqe_tap #684] sc_t=5974914544893 ps q=3
[NIC cqe_tap #685] sc_t=5974973191854 ps q=2
[NIC cqe_tap #686] sc_t=5974973191854 ps q=3
[NIC cqe_tap #687] sc_t=5975031838815 ps q=2
[NIC cqe_tap #688] sc_t=5975031838815 ps q=3
[NIC cqe_tap #689] sc_t=5975090485776 ps q=2
[NIC cqe_tap #690] sc_t=5975090485776 ps q=3
[NIC cqe_tap #691] sc_t=5975149132737 ps q=2
[NIC cqe_tap #692] sc_t=5975149132737 ps q=3
[NIC cqe_tap #693] sc_t=5975207779698 ps q=2
[NIC cqe_tap #694] sc_t=5975207779698 ps q=3
[NIC cqe_tap #695] sc_t=5975266426659 ps q=2
[NIC cqe_tap #696] sc_t=5975266426659 ps q=3
[NIC cqe_tap #697] sc_t=5975325073620 ps q=2
[NIC cqe_tap #698] sc_t=5975325073620 ps q=3
[NIC cqe_tap #699] sc_t=5975383720581 ps q=2
[NIC cqe_tap #700] sc_t=5975383720581 ps q=3
[NIC cqe_tap #701] sc_t=5975442367542 ps q=2
[NIC cqe_tap #702] sc_t=5975442367542 ps q=3
[NIC cqe_tap #703] sc_t=5976347699637 ps q=2
[NIC cqe_tap #704] sc_t=5976347699637 ps q=3
[NIC cqe_tap #705] sc_t=5976351523809 ps q=2
[NIC cqe_tap #706] sc_t=5976351523809 ps q=3
[NIC cqe_tap #707] sc_t=5976355347981 ps q=2
[NIC cqe_tap #708] sc_t=5976355347981 ps q=3
[NIC cqe_tap #709] sc_t=5976359172153 ps q=2
[NIC cqe_tap #710] sc_t=5976359172153 ps q=3
[NIC cqe_tap #711] sc_t=5976362996325 ps q=2
[NIC cqe_tap #712] sc_t=5976362996325 ps q=3
[NIC cqe_tap #713] sc_t=5976366820497 ps q=2
[NIC cqe_tap #714] sc_t=5976366820497 ps q=3
[NIC cqe_tap #715] sc_t=5976370644669 ps q=2
[NIC cqe_tap #716] sc_t=5976370644669 ps q=3
[NIC cqe_tap #717] sc_t=5976374468841 ps q=2
[NIC cqe_tap #718] sc_t=5976374468841 ps q=3
[NIC cqe_tap #719] sc_t=5976378293013 ps q=2
[NIC cqe_tap #720] sc_t=5976378293013 ps q=3
[NIC cqe_tap #721] sc_t=5976382117185 ps q=2
[NIC cqe_tap #722] sc_t=5976382117185 ps q=3
[NIC cqe_tap #723] sc_t=5976385941357 ps q=2
[NIC cqe_tap #724] sc_t=5976385941357 ps q=3
[NIC cqe_tap #725] sc_t=5976389765529 ps q=2
[NIC cqe_tap #726] sc_t=5976389765529 ps q=3
[NIC cqe_tap #727] sc_t=5976393589701 ps q=2
[NIC cqe_tap #728] sc_t=5976393589701 ps q=3
[NIC cqe_tap #729] sc_t=5976397413873 ps q=2
[NIC cqe_tap #730] sc_t=5976397413873 ps q=3
[NIC cqe_tap #731] sc_t=5976401238045 ps q=2
[NIC cqe_tap #732] sc_t=5976401238045 ps q=3
[NIC cqe_tap #733] sc_t=5976405062217 ps q=2
[NIC cqe_tap #734] sc_t=5976405062217 ps q=3
[NIC cqe_tap #735] sc_t=5977332106578 ps q=2
[NIC cqe_tap #736] sc_t=5977332106578 ps q=3
[NIC cqe_tap #737] sc_t=5977390753539 ps q=2
[NIC cqe_tap #738] sc_t=5977390753539 ps q=3
[NIC cqe_tap #739] sc_t=5977449400500 ps q=2
[NIC cqe_tap #740] sc_t=5977449400500 ps q=3
[NIC cqe_tap #741] sc_t=5977508047461 ps q=2
[NIC cqe_tap #742] sc_t=5977508047461 ps q=3
[NIC cqe_tap #743] sc_t=5977566694422 ps q=2
[NIC cqe_tap #744] sc_t=5977566694422 ps q=3
[NIC cqe_tap #745] sc_t=5977625341383 ps q=2
[NIC cqe_tap #746] sc_t=5977625341383 ps q=3
[NIC cqe_tap #747] sc_t=5977683988344 ps q=2
[NIC cqe_tap #748] sc_t=5977683988344 ps q=3
[NIC cqe_tap #749] sc_t=5977742635305 ps q=2
[NIC cqe_tap #750] sc_t=5977742635305 ps q=3
[NIC cqe_tap #751] sc_t=5977801282266 ps q=2
[NIC cqe_tap #752] sc_t=5977801282266 ps q=3
[NIC cqe_tap #753] sc_t=5977859929227 ps q=2
[NIC cqe_tap #754] sc_t=5977859929227 ps q=3
[NIC cqe_tap #755] sc_t=5977918576188 ps q=2
[NIC cqe_tap #756] sc_t=5977918576188 ps q=3
[NIC cqe_tap #757] sc_t=5977977223149 ps q=2
[NIC cqe_tap #758] sc_t=5977977223149 ps q=3
[NIC cqe_tap #759] sc_t=5978035870110 ps q=2
[NIC cqe_tap #760] sc_t=5978035870110 ps q=3
[NIC cqe_tap #761] sc_t=5978094517071 ps q=2
[NIC cqe_tap #762] sc_t=5978094517071 ps q=3
[NIC cqe_tap #763] sc_t=5978153164032 ps q=2
[NIC cqe_tap #764] sc_t=5978153164032 ps q=3
[NIC cqe_tap #765] sc_t=5978211810993 ps q=2
[NIC cqe_tap #766] sc_t=5978211810993 ps q=3
[NIC cqe_tap #767] sc_t=5979755563029 ps q=2
[NIC cqe_tap #768] sc_t=5979755563029 ps q=3
[NIC_DECOMP] drains=2688 cum_cycles=1537 ethdec=1152 jsched=385
[NIC cqe_tap #769] sc_t=5979759387201 ps q=2
[NIC cqe_tap #770] sc_t=5979759387201 ps q=3
[NIC cqe_tap #771] sc_t=5979763211373 ps q=2
[NIC cqe_tap #772] sc_t=5979763211373 ps q=3
[NIC cqe_tap #773] sc_t=5979767035545 ps q=2
[NIC cqe_tap #774] sc_t=5979767035545 ps q=3
[NIC cqe_tap #775] sc_t=5979770859717 ps q=2
[NIC cqe_tap #776] sc_t=5979770859717 ps q=3
[NIC cqe_tap #777] sc_t=5979774683889 ps q=2
[NIC cqe_tap #778] sc_t=5979774683889 ps q=3
[NIC cqe_tap #779] sc_t=5979778508061 ps q=2
[NIC cqe_tap #780] sc_t=5979778508061 ps q=3
[NIC cqe_tap #781] sc_t=5979782332233 ps q=2
[NIC cqe_tap #782] sc_t=5979782332233 ps q=3
[NIC cqe_tap #783] sc_t=5979786156405 ps q=2
[NIC cqe_tap #784] sc_t=5979786156405 ps q=3
[NIC cqe_tap #785] sc_t=5979789980577 ps q=2
[NIC cqe_tap #786] sc_t=5979789980577 ps q=3
[NIC_DECOMP] drains=2752 cum_cycles=1574 ethdec=1179 jsched=395
[NIC cqe_tap #787] sc_t=5979793804749 ps q=2
[NIC cqe_tap #788] sc_t=5979793804749 ps q=3
[NIC cqe_tap #789] sc_t=5979797628921 ps q=2
[NIC cqe_tap #790] sc_t=5979797628921 ps q=3
[NIC cqe_tap #791] sc_t=5979801453093 ps q=2
[NIC cqe_tap #792] sc_t=5979801453093 ps q=3
[NIC cqe_tap #793] sc_t=5979805277265 ps q=2
[NIC cqe_tap #794] sc_t=5979805277265 ps q=3
[NIC cqe_tap #795] sc_t=5979809101437 ps q=2
[NIC cqe_tap #796] sc_t=5979809101437 ps q=3
[NIC cqe_tap #797] sc_t=5979812925609 ps q=2
[NIC cqe_tap #798] sc_t=5979812925609 ps q=3
[NIC cqe_tap #799] sc_t=5980739969970 ps q=2
[NIC cqe_tap #800] sc_t=5980739969970 ps q=3
[NIC cqe_tap #801] sc_t=5980798616931 ps q=2
[NIC cqe_tap #802] sc_t=5980798616931 ps q=3
[NIC cqe_tap #803] sc_t=5980857263892 ps q=2
[NIC cqe_tap #804] sc_t=5980857263892 ps q=3
[NIC cqe_tap #805] sc_t=5980915910853 ps q=2
[NIC cqe_tap #806] sc_t=5980915910853 ps q=3
[NIC cqe_tap #807] sc_t=5980974557814 ps q=2
[NIC cqe_tap #808] sc_t=5980974557814 ps q=3
[NIC cqe_tap #809] sc_t=5981033204775 ps q=2
[NIC cqe_tap #810] sc_t=5981033204775 ps q=3
[NIC cqe_tap #811] sc_t=5981091851736 ps q=2
[NIC cqe_tap #812] sc_t=5981091851736 ps q=3
[NIC cqe_tap #813] sc_t=5981150498697 ps q=2
[NIC cqe_tap #814] sc_t=5981150498697 ps q=3
[NIC cqe_tap #815] sc_t=5981209145658 ps q=2
[NIC cqe_tap #816] sc_t=5981209145658 ps q=3
[NIC cqe_tap #817] sc_t=5981267792619 ps q=2
[NIC cqe_tap #818] sc_t=5981267792619 ps q=3
[NIC cqe_tap #819] sc_t=5981326439580 ps q=2
[NIC cqe_tap #820] sc_t=5981326439580 ps q=3
[NIC cqe_tap #821] sc_t=5981385086541 ps q=2
[NIC cqe_tap #822] sc_t=5981385086541 ps q=3
[NIC cqe_tap #823] sc_t=5981443733502 ps q=2
[NIC cqe_tap #824] sc_t=5981443733502 ps q=3
[NIC cqe_tap #825] sc_t=5981502380463 ps q=2
[NIC cqe_tap #826] sc_t=5981502380463 ps q=3
[NIC cqe_tap #827] sc_t=5981561027424 ps q=2
[NIC cqe_tap #828] sc_t=5981561027424 ps q=3
[NIC cqe_tap #829] sc_t=5981619674385 ps q=2
[NIC cqe_tap #830] sc_t=5981619674385 ps q=3
[NIC cqe_tap #831] sc_t=5987740007259 ps q=2
[NIC cqe_tap #832] sc_t=5987740007259 ps q=3
[NIC cqe_tap #833] sc_t=5987743088175 ps q=2
[NIC cqe_tap #834] sc_t=5987743088175 ps q=3
[NIC cqe_tap #835] sc_t=5987746169091 ps q=2
[NIC cqe_tap #836] sc_t=5987746169091 ps q=3
[NIC cqe_tap #837] sc_t=5987749250007 ps q=2
[NIC cqe_tap #838] sc_t=5987749250007 ps q=3
[NIC cqe_tap #839] sc_t=5987752330923 ps q=2
[NIC cqe_tap #840] sc_t=5987752330923 ps q=3
[NIC cqe_tap #841] sc_t=5987755411839 ps q=2
[NIC cqe_tap #842] sc_t=5987755411839 ps q=3
[NIC cqe_tap #843] sc_t=5987758492755 ps q=2
[NIC cqe_tap #844] sc_t=5987758492755 ps q=3
[NIC cqe_tap #845] sc_t=5987761573671 ps q=2
[NIC cqe_tap #846] sc_t=5987761573671 ps q=3
[NIC cqe_tap #847] sc_t=5987764654587 ps q=2
[NIC cqe_tap #848] sc_t=5987764654587 ps q=3
[NIC cqe_tap #849] sc_t=5987767735503 ps q=2
[NIC cqe_tap #850] sc_t=5987767735503 ps q=3
[NIC cqe_tap #851] sc_t=5987770816419 ps q=2
[NIC cqe_tap #852] sc_t=5987770816419 ps q=3
[NIC cqe_tap #853] sc_t=5987773897335 ps q=2
[NIC cqe_tap #854] sc_t=5987773897335 ps q=3
[NIC cqe_tap #855] sc_t=5987776978251 ps q=2
[NIC cqe_tap #856] sc_t=5987776978251 ps q=3
[NIC cqe_tap #857] sc_t=5987780059167 ps q=2
[NIC cqe_tap #858] sc_t=5987780059167 ps q=3
[NIC cqe_tap #859] sc_t=5987783140083 ps q=2
[NIC cqe_tap #860] sc_t=5987783140083 ps q=3
[NIC cqe_tap #861] sc_t=5987786220999 ps q=2
[NIC cqe_tap #862] sc_t=5987786220999 ps q=3
[NIC cqe_tap #863] sc_t=5987789301915 ps q=2
[NIC cqe_tap #864] sc_t=5987789301915 ps q=3
[NIC cqe_tap #865] sc_t=5987792382831 ps q=2
[NIC cqe_tap #866] sc_t=5987792382831 ps q=3
[NIC cqe_tap #867] sc_t=5987795463747 ps q=2
[NIC cqe_tap #868] sc_t=5987795463747 ps q=3
[NIC cqe_tap #869] sc_t=5987798544663 ps q=2
[NIC cqe_tap #870] sc_t=5987798544663 ps q=3
[NIC cqe_tap #871] sc_t=5987801625579 ps q=2
[NIC cqe_tap #872] sc_t=5987801625579 ps q=3
[NIC cqe_tap #873] sc_t=5987804706495 ps q=2
[NIC cqe_tap #874] sc_t=5987804706495 ps q=3
[NIC cqe_tap #875] sc_t=5987807787411 ps q=2
[NIC cqe_tap #876] sc_t=5987807787411 ps q=3
[NIC cqe_tap #877] sc_t=5987810868327 ps q=2
[NIC cqe_tap #878] sc_t=5987810868327 ps q=3
[NIC cqe_tap #879] sc_t=5987813949243 ps q=2
[NIC cqe_tap #880] sc_t=5987813949243 ps q=3
[NIC cqe_tap #881] sc_t=5987817030159 ps q=2
[NIC cqe_tap #882] sc_t=5987817030159 ps q=3
[NIC cqe_tap #883] sc_t=5987820111075 ps q=2
[NIC cqe_tap #884] sc_t=5987820111075 ps q=3
[NIC cqe_tap #885] sc_t=5987823191991 ps q=2
[NIC cqe_tap #886] sc_t=5987823191991 ps q=3
[NIC cqe_tap #887] sc_t=5987826272907 ps q=2
[NIC cqe_tap #888] sc_t=5987826272907 ps q=3
[NIC cqe_tap #889] sc_t=5987829353823 ps q=2
[NIC cqe_tap #890] sc_t=5987829353823 ps q=3
[NIC cqe_tap #891] sc_t=5987832434739 ps q=2
[NIC cqe_tap #892] sc_t=5987832434739 ps q=3
[NIC cqe_tap #893] sc_t=5987835515655 ps q=2
[NIC cqe_tap #894] sc_t=5987835515655 ps q=3
[NIC cqe_tap #895] sc_t=5988727919358 ps q=2
[NIC cqe_tap #896] sc_t=5988727919358 ps q=3
[NIC_DECOMP] drains=3136 cum_cycles=1793 ethdec=1344 jsched=449
[NIC cqe_tap #897] sc_t=5988785451435 ps q=2
[NIC cqe_tap #898] sc_t=5988785451435 ps q=3
[NIC cqe_tap #899] sc_t=5988842983512 ps q=2
[NIC cqe_tap #900] sc_t=5988842983512 ps q=3
[NIC cqe_tap #901] sc_t=5988900515589 ps q=2
[NIC cqe_tap #902] sc_t=5988900515589 ps q=3
[NIC cqe_tap #903] sc_t=5988958047666 ps q=2
[NIC cqe_tap #904] sc_t=5988958047666 ps q=3
[NIC cqe_tap #905] sc_t=5989015579743 ps q=2
[NIC cqe_tap #906] sc_t=5989015579743 ps q=3
[NIC cqe_tap #907] sc_t=5989073111820 ps q=2
[NIC cqe_tap #908] sc_t=5989073111820 ps q=3
[NIC cqe_tap #909] sc_t=5989130643897 ps q=2
[NIC cqe_tap #910] sc_t=5989130643897 ps q=3
[NIC cqe_tap #911] sc_t=5989188175974 ps q=2
[NIC cqe_tap #912] sc_t=5989188175974 ps q=3
[NIC cqe_tap #913] sc_t=5989245708051 ps q=2
[NIC cqe_tap #914] sc_t=5989245708051 ps q=3
[NIC_DECOMP] drains=3200 cum_cycles=1830 ethdec=1371 jsched=459
[NIC cqe_tap #915] sc_t=5989303240128 ps q=2
[NIC cqe_tap #916] sc_t=5989303240128 ps q=3
[NIC cqe_tap #917] sc_t=5989360772205 ps q=2
[NIC cqe_tap #918] sc_t=5989360772205 ps q=3
[NIC cqe_tap #919] sc_t=5989418304282 ps q=2
[NIC cqe_tap #920] sc_t=5989418304282 ps q=3
[NIC cqe_tap #921] sc_t=5989475836359 ps q=2
[NIC cqe_tap #922] sc_t=5989475836359 ps q=3
[NIC cqe_tap #923] sc_t=5989533368436 ps q=2
[NIC cqe_tap #924] sc_t=5989533368436 ps q=3
[NIC cqe_tap #925] sc_t=5989590900513 ps q=2
[NIC cqe_tap #926] sc_t=5989590900513 ps q=3
[NIC cqe_tap #927] sc_t=5989648432590 ps q=2
[NIC cqe_tap #928] sc_t=5989648432590 ps q=3
[NIC cqe_tap #929] sc_t=5989705964667 ps q=2
[NIC cqe_tap #930] sc_t=5989705964667 ps q=3
[NIC cqe_tap #931] sc_t=5989763496744 ps q=2
[NIC cqe_tap #932] sc_t=5989763496744 ps q=3
[NIC cqe_tap #933] sc_t=5989821028821 ps q=2
[NIC cqe_tap #934] sc_t=5989821028821 ps q=3
[NIC cqe_tap #935] sc_t=5989878560898 ps q=2
[NIC cqe_tap #936] sc_t=5989878560898 ps q=3
[NIC cqe_tap #937] sc_t=5989936092975 ps q=2
[NIC cqe_tap #938] sc_t=5989936092975 ps q=3
[NIC cqe_tap #939] sc_t=5989993625052 ps q=2
[NIC cqe_tap #940] sc_t=5989993625052 ps q=3
[NIC cqe_tap #941] sc_t=5990051157129 ps q=2
[NIC cqe_tap #942] sc_t=5990051157129 ps q=3
[NIC cqe_tap #943] sc_t=5990108689206 ps q=2
[NIC cqe_tap #944] sc_t=5990108689206 ps q=3
[NIC cqe_tap #945] sc_t=5990166221283 ps q=2
[NIC cqe_tap #946] sc_t=5990166221283 ps q=3
[NIC cqe_tap #947] sc_t=5990223753360 ps q=2
[NIC cqe_tap #948] sc_t=5990223753360 ps q=3
[NIC cqe_tap #949] sc_t=5990281285437 ps q=2
[NIC cqe_tap #950] sc_t=5990281285437 ps q=3
[NIC cqe_tap #951] sc_t=5990338817514 ps q=2
[NIC cqe_tap #952] sc_t=5990338817514 ps q=3
[NIC cqe_tap #953] sc_t=5990396349591 ps q=2
[NIC cqe_tap #954] sc_t=5990396349591 ps q=3
[NIC cqe_tap #955] sc_t=5990453881668 ps q=2
[NIC cqe_tap #956] sc_t=5990453881668 ps q=3
[NIC cqe_tap #957] sc_t=5990511413745 ps q=2
[NIC cqe_tap #958] sc_t=5990511413745 ps q=3
[NIC cqe_tap #959] sc_t=5992024498146 ps q=2
[NIC cqe_tap #960] sc_t=5992024498146 ps q=3
[NIC cqe_tap #961] sc_t=5992027579062 ps q=2
[NIC cqe_tap #962] sc_t=5992027579062 ps q=3
[NIC cqe_tap #963] sc_t=5992030659978 ps q=2
[NIC cqe_tap #964] sc_t=5992030659978 ps q=3
[NIC cqe_tap #965] sc_t=5992033740894 ps q=2
[NIC cqe_tap #966] sc_t=5992033740894 ps q=3
[NIC cqe_tap #967] sc_t=5992036821810 ps q=2
[NIC cqe_tap #968] sc_t=5992036821810 ps q=3
[NIC cqe_tap #969] sc_t=5992039902726 ps q=2
[NIC cqe_tap #970] sc_t=5992039902726 ps q=3
[NIC cqe_tap #971] sc_t=5992042983642 ps q=2
[NIC cqe_tap #972] sc_t=5992042983642 ps q=3
[NIC cqe_tap #973] sc_t=5992046064558 ps q=2
[NIC cqe_tap #974] sc_t=5992046064558 ps q=3
[NIC cqe_tap #975] sc_t=5992049145474 ps q=2
[NIC cqe_tap #976] sc_t=5992049145474 ps q=3
[NIC cqe_tap #977] sc_t=5992052226390 ps q=2
[NIC cqe_tap #978] sc_t=5992052226390 ps q=3
[NIC cqe_tap #979] sc_t=5992055307306 ps q=2
[NIC cqe_tap #980] sc_t=5992055307306 ps q=3
[NIC cqe_tap #981] sc_t=5992058388222 ps q=2
[NIC cqe_tap #982] sc_t=5992058388222 ps q=3
[NIC cqe_tap #983] sc_t=5992061469138 ps q=2
[NIC cqe_tap #984] sc_t=5992061469138 ps q=3
[NIC cqe_tap #985] sc_t=5992064550054 ps q=2
[NIC cqe_tap #986] sc_t=5992064550054 ps q=3
[NIC cqe_tap #987] sc_t=5992067630970 ps q=2
[NIC cqe_tap #988] sc_t=5992067630970 ps q=3
[NIC cqe_tap #989] sc_t=5992070711886 ps q=2
[NIC cqe_tap #990] sc_t=5992070711886 ps q=3
[NIC cqe_tap #991] sc_t=5992073792802 ps q=2
[NIC cqe_tap #992] sc_t=5992073792802 ps q=3
[NIC cqe_tap #993] sc_t=5992076873718 ps q=2
[NIC cqe_tap #994] sc_t=5992076873718 ps q=3
[NIC cqe_tap #995] sc_t=5992079954634 ps q=2
[NIC cqe_tap #996] sc_t=5992079954634 ps q=3
[NIC cqe_tap #997] sc_t=5992083035550 ps q=2
[NIC cqe_tap #998] sc_t=5992083035550 ps q=3
[NIC cqe_tap #999] sc_t=5992086116466 ps q=2
[NIC cqe_tap #1000] sc_t=5992086116466 ps q=3
[NIC cqe_tap #1001] sc_t=5992089197382 ps q=2
[NIC cqe_tap #1002] sc_t=5992089197382 ps q=3
[NIC cqe_tap #1003] sc_t=5992092278298 ps q=2
[NIC cqe_tap #1004] sc_t=5992092278298 ps q=3
[NIC cqe_tap #1005] sc_t=5992095359214 ps q=2
[NIC cqe_tap #1006] sc_t=5992095359214 ps q=3
[NIC cqe_tap #1007] sc_t=5992098440130 ps q=2
[NIC cqe_tap #1008] sc_t=5992098440130 ps q=3
[NIC cqe_tap #1009] sc_t=5992101521046 ps q=2
[NIC cqe_tap #1010] sc_t=5992101521046 ps q=3
[NIC cqe_tap #1011] sc_t=5992104601962 ps q=2
[NIC cqe_tap #1012] sc_t=5992104601962 ps q=3
[NIC cqe_tap #1013] sc_t=5992107682878 ps q=2
[NIC cqe_tap #1014] sc_t=5992107682878 ps q=3
[NIC cqe_tap #1015] sc_t=5992110763794 ps q=2
[NIC cqe_tap #1016] sc_t=5992110763794 ps q=3
[NIC cqe_tap #1017] sc_t=5992113844710 ps q=2
[NIC cqe_tap #1018] sc_t=5992113844710 ps q=3
[NIC cqe_tap #1019] sc_t=5992116925626 ps q=2
[NIC cqe_tap #1020] sc_t=5992116925626 ps q=3
[NIC cqe_tap #1021] sc_t=5992120006542 ps q=2
[NIC cqe_tap #1022] sc_t=5992120006542 ps q=3
[NIC cqe_tap #1023] sc_t=5992123087458 ps q=2
[NIC cqe_tap #1024] sc_t=5992123087458 ps q=3
[NIC_DECOMP] drains=3584 cum_cycles=2049 ethdec=1536 jsched=513
[NIC cqe_tap #1025] sc_t=5992126168374 ps q=2
[NIC cqe_tap #1026] sc_t=5992126168374 ps q=3
[NIC cqe_tap #1027] sc_t=5992129249290 ps q=2
[NIC cqe_tap #1028] sc_t=5992129249290 ps q=3
[NIC cqe_tap #1029] sc_t=5992132330206 ps q=2
[NIC cqe_tap #1030] sc_t=5992132330206 ps q=3
[NIC cqe_tap #1031] sc_t=5992135411122 ps q=2
[NIC cqe_tap #1032] sc_t=5992135411122 ps q=3
[NIC cqe_tap #1033] sc_t=5992138492038 ps q=2
[NIC cqe_tap #1034] sc_t=5992138492038 ps q=3
[NIC cqe_tap #1035] sc_t=5992141572954 ps q=2
[NIC cqe_tap #1036] sc_t=5992141572954 ps q=3
[NIC cqe_tap #1037] sc_t=5992144653870 ps q=2
[NIC cqe_tap #1038] sc_t=5992144653870 ps q=3
[NIC cqe_tap #1039] sc_t=5992147734786 ps q=2
[NIC cqe_tap #1040] sc_t=5992147734786 ps q=3
[NIC cqe_tap #1041] sc_t=5992150815702 ps q=2
[NIC cqe_tap #1042] sc_t=5992150815702 ps q=3
[NIC_DECOMP] drains=3648 cum_cycles=2086 ethdec=1563 jsched=523
[NIC cqe_tap #1043] sc_t=5992153896618 ps q=2
[NIC cqe_tap #1044] sc_t=5992153896618 ps q=3
[NIC cqe_tap #1045] sc_t=5992156977534 ps q=2
[NIC cqe_tap #1046] sc_t=5992156977534 ps q=3
[NIC cqe_tap #1047] sc_t=5992160058450 ps q=2
[NIC cqe_tap #1048] sc_t=5992160058450 ps q=3
[NIC cqe_tap #1049] sc_t=5992163139366 ps q=2
[NIC cqe_tap #1050] sc_t=5992163139366 ps q=3
[NIC cqe_tap #1051] sc_t=5992166220282 ps q=2
[NIC cqe_tap #1052] sc_t=5992166220282 ps q=3
[NIC cqe_tap #1053] sc_t=5992169301198 ps q=2
[NIC cqe_tap #1054] sc_t=5992169301198 ps q=3
[NIC cqe_tap #1055] sc_t=5992172382114 ps q=2
[NIC cqe_tap #1056] sc_t=5992172382114 ps q=3
[NIC cqe_tap #1057] sc_t=5992175463030 ps q=2
[NIC cqe_tap #1058] sc_t=5992175463030 ps q=3
[NIC cqe_tap #1059] sc_t=5992178543946 ps q=2
[NIC cqe_tap #1060] sc_t=5992178543946 ps q=3
[NIC cqe_tap #1061] sc_t=5992181624862 ps q=2
[NIC cqe_tap #1062] sc_t=5992181624862 ps q=3
[NIC cqe_tap #1063] sc_t=5992184705778 ps q=2
[NIC cqe_tap #1064] sc_t=5992184705778 ps q=3
[NIC cqe_tap #1065] sc_t=5992187786694 ps q=2
[NIC cqe_tap #1066] sc_t=5992187786694 ps q=3
[NIC cqe_tap #1067] sc_t=5992190867610 ps q=2
[NIC cqe_tap #1068] sc_t=5992190867610 ps q=3
[NIC cqe_tap #1069] sc_t=5992193948526 ps q=2
[NIC cqe_tap #1070] sc_t=5992193948526 ps q=3
[NIC cqe_tap #1071] sc_t=5992197029442 ps q=2
[NIC cqe_tap #1072] sc_t=5992197029442 ps q=3
[NIC cqe_tap #1073] sc_t=5992200110358 ps q=2
[NIC cqe_tap #1074] sc_t=5992200110358 ps q=3
[NIC cqe_tap #1075] sc_t=5992203191274 ps q=2
[NIC cqe_tap #1076] sc_t=5992203191274 ps q=3
[NIC cqe_tap #1077] sc_t=5992206272190 ps q=2
[NIC cqe_tap #1078] sc_t=5992206272190 ps q=3
[NIC cqe_tap #1079] sc_t=5992209353106 ps q=2
[NIC cqe_tap #1080] sc_t=5992209353106 ps q=3
[NIC cqe_tap #1081] sc_t=5992212434022 ps q=2
[NIC cqe_tap #1082] sc_t=5992212434022 ps q=3
[NIC cqe_tap #1083] sc_t=5992215514938 ps q=2
[NIC cqe_tap #1084] sc_t=5992215514938 ps q=3
[NIC cqe_tap #1085] sc_t=5992218595854 ps q=2
[NIC cqe_tap #1086] sc_t=5992218595854 ps q=3
[NIC cqe_tap #1087] sc_t=5992221676770 ps q=2
[NIC cqe_tap #1088] sc_t=5992221676770 ps q=3
[NIC cqe_tap #1089] sc_t=5992224757686 ps q=2
[NIC cqe_tap #1090] sc_t=5992224757686 ps q=3
[NIC cqe_tap #1091] sc_t=5992227838602 ps q=2
[NIC cqe_tap #1092] sc_t=5992227838602 ps q=3
[NIC cqe_tap #1093] sc_t=5992230919518 ps q=2
[NIC cqe_tap #1094] sc_t=5992230919518 ps q=3
[NIC cqe_tap #1095] sc_t=5992234000434 ps q=2
[NIC cqe_tap #1096] sc_t=5992234000434 ps q=3
[NIC cqe_tap #1097] sc_t=5992237081350 ps q=2
[NIC cqe_tap #1098] sc_t=5992237081350 ps q=3
[NIC cqe_tap #1099] sc_t=5992240162266 ps q=2
[NIC cqe_tap #1100] sc_t=5992240162266 ps q=3
[NIC cqe_tap #1101] sc_t=5992243243182 ps q=2
[NIC cqe_tap #1102] sc_t=5992243243182 ps q=3
[NIC cqe_tap #1103] sc_t=5992246324098 ps q=2
[NIC cqe_tap #1104] sc_t=5992246324098 ps q=3
[NIC cqe_tap #1105] sc_t=5992249405014 ps q=2
[NIC cqe_tap #1106] sc_t=5992249405014 ps q=3
[NIC cqe_tap #1107] sc_t=5992252485930 ps q=2
[NIC cqe_tap #1108] sc_t=5992252485930 ps q=3
[NIC cqe_tap #1109] sc_t=5992255566846 ps q=2
[NIC cqe_tap #1110] sc_t=5992255566846 ps q=3
[NIC cqe_tap #1111] sc_t=5992258647762 ps q=2
[NIC cqe_tap #1112] sc_t=5992258647762 ps q=3
[NIC cqe_tap #1113] sc_t=5992261728678 ps q=2
[NIC cqe_tap #1114] sc_t=5992261728678 ps q=3
[NIC cqe_tap #1115] sc_t=5992264809594 ps q=2
[NIC cqe_tap #1116] sc_t=5992264809594 ps q=3
[NIC cqe_tap #1117] sc_t=5992267890510 ps q=2
[NIC cqe_tap #1118] sc_t=5992267890510 ps q=3
[NIC cqe_tap #1119] sc_t=5992270971426 ps q=2
[NIC cqe_tap #1120] sc_t=5992270971426 ps q=3
[NIC cqe_tap #1121] sc_t=5992274052342 ps q=2
[NIC cqe_tap #1122] sc_t=5992274052342 ps q=3
[NIC cqe_tap #1123] sc_t=5992277133258 ps q=2
[NIC cqe_tap #1124] sc_t=5992277133258 ps q=3
[NIC cqe_tap #1125] sc_t=5992280214174 ps q=2
[NIC cqe_tap #1126] sc_t=5992280214174 ps q=3
[NIC cqe_tap #1127] sc_t=5992283295090 ps q=2
[NIC cqe_tap #1128] sc_t=5992283295090 ps q=3
[NIC cqe_tap #1129] sc_t=5992286376006 ps q=2
[NIC cqe_tap #1130] sc_t=5992286376006 ps q=3
[NIC cqe_tap #1131] sc_t=5992289456922 ps q=2
[NIC cqe_tap #1132] sc_t=5992289456922 ps q=3
[NIC cqe_tap #1133] sc_t=5992292537838 ps q=2
[NIC cqe_tap #1134] sc_t=5992292537838 ps q=3
[NIC cqe_tap #1135] sc_t=5992295618754 ps q=2
[NIC cqe_tap #1136] sc_t=5992295618754 ps q=3
[NIC cqe_tap #1137] sc_t=5992298699670 ps q=2
[NIC cqe_tap #1138] sc_t=5992298699670 ps q=3
[NIC cqe_tap #1139] sc_t=5992301780586 ps q=2
[NIC cqe_tap #1140] sc_t=5992301780586 ps q=3
[NIC cqe_tap #1141] sc_t=5992304861502 ps q=2
[NIC cqe_tap #1142] sc_t=5992304861502 ps q=3
[NIC cqe_tap #1143] sc_t=5992307942418 ps q=2
[NIC cqe_tap #1144] sc_t=5992307942418 ps q=3
[NIC cqe_tap #1145] sc_t=5992311023334 ps q=2
[NIC cqe_tap #1146] sc_t=5992311023334 ps q=3
[NIC cqe_tap #1147] sc_t=5992314104250 ps q=2
[NIC cqe_tap #1148] sc_t=5992314104250 ps q=3
[NIC cqe_tap #1149] sc_t=5992317185166 ps q=2
[NIC cqe_tap #1150] sc_t=5992317185166 ps q=3
[NIC cqe_tap #1151] sc_t=5992320266082 ps q=2
[NIC cqe_tap #1152] sc_t=5992320266082 ps q=3
[NIC_DECOMP] drains=4032 cum_cycles=2305 ethdec=1728 jsched=577
[NIC cqe_tap #1153] sc_t=5992323346998 ps q=2
[NIC cqe_tap #1154] sc_t=5992323346998 ps q=3
[NIC cqe_tap #1155] sc_t=5992326427914 ps q=2
[NIC cqe_tap #1156] sc_t=5992326427914 ps q=3
[NIC cqe_tap #1157] sc_t=5992329508830 ps q=2
[NIC cqe_tap #1158] sc_t=5992329508830 ps q=3
[NIC cqe_tap #1159] sc_t=5992332589746 ps q=2
[NIC cqe_tap #1160] sc_t=5992332589746 ps q=3
[NIC cqe_tap #1161] sc_t=5992335670662 ps q=2
[NIC cqe_tap #1162] sc_t=5992335670662 ps q=3
[NIC cqe_tap #1163] sc_t=5992338751578 ps q=2
[NIC cqe_tap #1164] sc_t=5992338751578 ps q=3
[NIC cqe_tap #1165] sc_t=5992341832494 ps q=2
[NIC cqe_tap #1166] sc_t=5992341832494 ps q=3
[NIC cqe_tap #1167] sc_t=5992344913410 ps q=2
[NIC cqe_tap #1168] sc_t=5992344913410 ps q=3
[NIC cqe_tap #1169] sc_t=5992347994326 ps q=2
[NIC cqe_tap #1170] sc_t=5992347994326 ps q=3
[NIC_DECOMP] drains=4096 cum_cycles=2342 ethdec=1755 jsched=587
[NIC cqe_tap #1171] sc_t=5992351075242 ps q=2
[NIC cqe_tap #1172] sc_t=5992351075242 ps q=3
[NIC cqe_tap #1173] sc_t=5992354156158 ps q=2
[NIC cqe_tap #1174] sc_t=5992354156158 ps q=3
[NIC cqe_tap #1175] sc_t=5992357237074 ps q=2
[NIC cqe_tap #1176] sc_t=5992357237074 ps q=3
[NIC cqe_tap #1177] sc_t=5992360317990 ps q=2
[NIC cqe_tap #1178] sc_t=5992360317990 ps q=3
[NIC cqe_tap #1179] sc_t=5992363398906 ps q=2
[NIC cqe_tap #1180] sc_t=5992363398906 ps q=3
[NIC cqe_tap #1181] sc_t=5992366479822 ps q=2
[NIC cqe_tap #1182] sc_t=5992366479822 ps q=3
[NIC cqe_tap #1183] sc_t=5992369560738 ps q=2
[NIC cqe_tap #1184] sc_t=5992369560738 ps q=3
[NIC cqe_tap #1185] sc_t=5992372641654 ps q=2
[NIC cqe_tap #1186] sc_t=5992372641654 ps q=3
[NIC cqe_tap #1187] sc_t=5992375722570 ps q=2
[NIC cqe_tap #1188] sc_t=5992375722570 ps q=3
[NIC cqe_tap #1189] sc_t=5992378803486 ps q=2
[NIC cqe_tap #1190] sc_t=5992378803486 ps q=3
[NIC cqe_tap #1191] sc_t=5992381884402 ps q=2
[NIC cqe_tap #1192] sc_t=5992381884402 ps q=3
[NIC cqe_tap #1193] sc_t=5992384965318 ps q=2
[NIC cqe_tap #1194] sc_t=5992384965318 ps q=3
[NIC cqe_tap #1195] sc_t=5992388046234 ps q=2
[NIC cqe_tap #1196] sc_t=5992388046234 ps q=3
[NIC cqe_tap #1197] sc_t=5992391127150 ps q=2
[NIC cqe_tap #1198] sc_t=5992391127150 ps q=3
[NIC cqe_tap #1199] sc_t=5992394208066 ps q=2
[NIC cqe_tap #1200] sc_t=5992394208066 ps q=3
[NIC cqe_tap #1201] sc_t=5992397288982 ps q=2
[NIC cqe_tap #1202] sc_t=5992397288982 ps q=3
[NIC cqe_tap #1203] sc_t=5992400369898 ps q=2
[NIC cqe_tap #1204] sc_t=5992400369898 ps q=3
[NIC cqe_tap #1205] sc_t=5992403450814 ps q=2
[NIC cqe_tap #1206] sc_t=5992403450814 ps q=3
[NIC cqe_tap #1207] sc_t=5992406531730 ps q=2
[NIC cqe_tap #1208] sc_t=5992406531730 ps q=3
[NIC cqe_tap #1209] sc_t=5992409612646 ps q=2
[NIC cqe_tap #1210] sc_t=5992409612646 ps q=3
[NIC cqe_tap #1211] sc_t=5992412693562 ps q=2
[NIC cqe_tap #1212] sc_t=5992412693562 ps q=3
[NIC cqe_tap #1213] sc_t=5992415774478 ps q=2
[NIC cqe_tap #1214] sc_t=5992415774478 ps q=3
[NIC cqe_tap #1215] sc_t=5993315757594 ps q=2
[NIC cqe_tap #1216] sc_t=5993315757594 ps q=3
[NIC cqe_tap #1217] sc_t=5993373289671 ps q=2
[NIC cqe_tap #1218] sc_t=5993373289671 ps q=3
[NIC cqe_tap #1219] sc_t=5993430821748 ps q=2
[NIC cqe_tap #1220] sc_t=5993430821748 ps q=3
[NIC cqe_tap #1221] sc_t=5993488353825 ps q=2
[NIC cqe_tap #1222] sc_t=5993488353825 ps q=3
[NIC cqe_tap #1223] sc_t=5993545885902 ps q=2
[NIC cqe_tap #1224] sc_t=5993545885902 ps q=3
[NIC cqe_tap #1225] sc_t=5993603417979 ps q=2
[NIC cqe_tap #1226] sc_t=5993603417979 ps q=3
[NIC cqe_tap #1227] sc_t=5993660950056 ps q=2
[NIC cqe_tap #1228] sc_t=5993660950056 ps q=3
[NIC cqe_tap #1229] sc_t=5993718482133 ps q=2
[NIC cqe_tap #1230] sc_t=5993718482133 ps q=3
[NIC cqe_tap #1231] sc_t=5993776014210 ps q=2
[NIC cqe_tap #1232] sc_t=5993776014210 ps q=3
[NIC cqe_tap #1233] sc_t=5993833546287 ps q=2
[NIC cqe_tap #1234] sc_t=5993833546287 ps q=3
[NIC cqe_tap #1235] sc_t=5993891078364 ps q=2
[NIC cqe_tap #1236] sc_t=5993891078364 ps q=3
[NIC cqe_tap #1237] sc_t=5993948610441 ps q=2
[NIC cqe_tap #1238] sc_t=5993948610441 ps q=3
[NIC cqe_tap #1239] sc_t=5994006142518 ps q=2
[NIC cqe_tap #1240] sc_t=5994006142518 ps q=3
[NIC cqe_tap #1241] sc_t=5994063674595 ps q=2
[NIC cqe_tap #1242] sc_t=5994063674595 ps q=3
[NIC cqe_tap #1243] sc_t=5994121206672 ps q=2
[NIC cqe_tap #1244] sc_t=5994121206672 ps q=3
[NIC cqe_tap #1245] sc_t=5994178738749 ps q=2
[NIC cqe_tap #1246] sc_t=5994178738749 ps q=3
[NIC cqe_tap #1247] sc_t=5994236270826 ps q=2
[NIC cqe_tap #1248] sc_t=5994236270826 ps q=3
[NIC cqe_tap #1249] sc_t=5994293802903 ps q=2
[NIC cqe_tap #1250] sc_t=5994293802903 ps q=3
[NIC cqe_tap #1251] sc_t=5994351334980 ps q=2
[NIC cqe_tap #1252] sc_t=5994351334980 ps q=3
[NIC cqe_tap #1253] sc_t=5994408867057 ps q=2
[NIC cqe_tap #1254] sc_t=5994408867057 ps q=3
[NIC cqe_tap #1255] sc_t=5994466399134 ps q=2
[NIC cqe_tap #1256] sc_t=5994466399134 ps q=3
[NIC cqe_tap #1257] sc_t=5994523931211 ps q=2
[NIC cqe_tap #1258] sc_t=5994523931211 ps q=3
[NIC cqe_tap #1259] sc_t=5994581463288 ps q=2
[NIC cqe_tap #1260] sc_t=5994581463288 ps q=3
[NIC cqe_tap #1261] sc_t=5994638995365 ps q=2
[NIC cqe_tap #1262] sc_t=5994638995365 ps q=3
[NIC cqe_tap #1263] sc_t=5994696527442 ps q=2
[NIC cqe_tap #1264] sc_t=5994696527442 ps q=3
[NIC cqe_tap #1265] sc_t=5994754059519 ps q=2
[NIC cqe_tap #1266] sc_t=5994754059519 ps q=3
[NIC cqe_tap #1267] sc_t=5994811591596 ps q=2
[NIC cqe_tap #1268] sc_t=5994811591596 ps q=3
[NIC cqe_tap #1269] sc_t=5995465877655 ps q=2
[NIC cqe_tap #1270] sc_t=5995465877655 ps q=3
[NIC cqe_tap #1271] sc_t=5995523409732 ps q=2
[NIC cqe_tap #1272] sc_t=5995523409732 ps q=3
[NIC cqe_tap #1273] sc_t=5995580941809 ps q=2
[NIC cqe_tap #1274] sc_t=5995580941809 ps q=3
[NIC cqe_tap #1275] sc_t=5995638473886 ps q=2
[NIC cqe_tap #1276] sc_t=5995638473886 ps q=3
[NIC cqe_tap #1277] sc_t=5995696005963 ps q=2
[NIC cqe_tap #1278] sc_t=5995696005963 ps q=3
[NIC cqe_tap #1279] sc_t=5995753538040 ps q=2
[NIC cqe_tap #1280] sc_t=5995753538040 ps q=3
[NIC_DECOMP] drains=4480 cum_cycles=2561 ethdec=1920 jsched=641
[NIC cqe_tap #1281] sc_t=5995811070117 ps q=2
[NIC cqe_tap #1282] sc_t=5995811070117 ps q=3
[NIC cqe_tap #1283] sc_t=5995868602194 ps q=2
[NIC cqe_tap #1284] sc_t=5995868602194 ps q=3
[NIC cqe_tap #1285] sc_t=5995926134271 ps q=2
[NIC cqe_tap #1286] sc_t=5995926134271 ps q=3
[NIC cqe_tap #1287] sc_t=5995983666348 ps q=2
[NIC cqe_tap #1288] sc_t=5995983666348 ps q=3
[NIC cqe_tap #1289] sc_t=5996041198425 ps q=2
[NIC cqe_tap #1290] sc_t=5996041198425 ps q=3
[NIC cqe_tap #1291] sc_t=5996098730502 ps q=2
[NIC cqe_tap #1292] sc_t=5996098730502 ps q=3
[NIC cqe_tap #1293] sc_t=5996156262579 ps q=2
[NIC cqe_tap #1294] sc_t=5996156262579 ps q=3
[NIC cqe_tap #1295] sc_t=5996213794656 ps q=2
[NIC cqe_tap #1296] sc_t=5996213794656 ps q=3
[NIC cqe_tap #1297] sc_t=5996271326733 ps q=2
[NIC cqe_tap #1298] sc_t=5996271326733 ps q=3
[NIC_DECOMP] drains=4544 cum_cycles=2598 ethdec=1947 jsched=651
[NIC cqe_tap #1299] sc_t=5996328858810 ps q=2
[NIC cqe_tap #1300] sc_t=5996328858810 ps q=3
[NIC cqe_tap #1301] sc_t=5996386390887 ps q=2
[NIC cqe_tap #1302] sc_t=5996386390887 ps q=3
[NIC cqe_tap #1303] sc_t=5996443922964 ps q=2
[NIC cqe_tap #1304] sc_t=5996443922964 ps q=3
[NIC cqe_tap #1305] sc_t=5996501455041 ps q=2
[NIC cqe_tap #1306] sc_t=5996501455041 ps q=3
[NIC cqe_tap #1307] sc_t=5996558987118 ps q=2
[NIC cqe_tap #1308] sc_t=5996558987118 ps q=3
[NIC cqe_tap #1309] sc_t=5996616519195 ps q=2
[NIC cqe_tap #1310] sc_t=5996616519195 ps q=3
[NIC cqe_tap #1311] sc_t=5996674051272 ps q=2
[NIC cqe_tap #1312] sc_t=5996674051272 ps q=3
[NIC cqe_tap #1313] sc_t=5996731583349 ps q=2
[NIC cqe_tap #1314] sc_t=5996731583349 ps q=3
[NIC cqe_tap #1315] sc_t=5996789115426 ps q=2
[NIC cqe_tap #1316] sc_t=5996789115426 ps q=3
[NIC cqe_tap #1317] sc_t=5996846647503 ps q=2
[NIC cqe_tap #1318] sc_t=5996846647503 ps q=3
[NIC cqe_tap #1319] sc_t=5996904179580 ps q=2
[NIC cqe_tap #1320] sc_t=5996904179580 ps q=3
[NIC cqe_tap #1321] sc_t=5996961711657 ps q=2
[NIC cqe_tap #1322] sc_t=5996961711657 ps q=3
[NIC cqe_tap #1323] sc_t=5997019243734 ps q=2
[NIC cqe_tap #1324] sc_t=5997019243734 ps q=3
[NIC cqe_tap #1325] sc_t=5997076775811 ps q=2
[NIC cqe_tap #1326] sc_t=5997076775811 ps q=3
[NIC cqe_tap #1327] sc_t=5997134307888 ps q=2
[NIC cqe_tap #1328] sc_t=5997134307888 ps q=3
[NIC cqe_tap #1329] sc_t=5997191839965 ps q=2
[NIC cqe_tap #1330] sc_t=5997191839965 ps q=3
[NIC cqe_tap #1331] sc_t=5997249372042 ps q=2
[NIC cqe_tap #1332] sc_t=5997249372042 ps q=3
[NIC cqe_tap #1333] sc_t=5997306904119 ps q=2
[NIC cqe_tap #1334] sc_t=5997306904119 ps q=3
[NIC cqe_tap #1335] sc_t=5997364436196 ps q=2
[NIC cqe_tap #1336] sc_t=5997364436196 ps q=3
[NIC cqe_tap #1337] sc_t=5997421968273 ps q=2
[NIC cqe_tap #1338] sc_t=5997421968273 ps q=3
[NIC cqe_tap #1339] sc_t=5997479500350 ps q=2
[NIC cqe_tap #1340] sc_t=5997479500350 ps q=3
[NIC cqe_tap #1341] sc_t=5997537032427 ps q=2
[NIC cqe_tap #1342] sc_t=5997537032427 ps q=3
[NIC cqe_tap #1343] sc_t=5997594564504 ps q=2
[NIC cqe_tap #1344] sc_t=5997594564504 ps q=3
[NIC cqe_tap #1345] sc_t=5997652096581 ps q=2
[NIC cqe_tap #1346] sc_t=5997652096581 ps q=3
[NIC cqe_tap #1347] sc_t=5997709628658 ps q=2
[NIC cqe_tap #1348] sc_t=5997709628658 ps q=3
[NIC cqe_tap #1349] sc_t=5997767160735 ps q=2
[NIC cqe_tap #1350] sc_t=5997767160735 ps q=3
[NIC cqe_tap #1351] sc_t=5997824692812 ps q=2
[NIC cqe_tap #1352] sc_t=5997824692812 ps q=3
[NIC cqe_tap #1353] sc_t=5997882224889 ps q=2
[NIC cqe_tap #1354] sc_t=5997882224889 ps q=3
[NIC cqe_tap #1355] sc_t=5997939756966 ps q=2
[NIC cqe_tap #1356] sc_t=5997939756966 ps q=3
[NIC cqe_tap #1357] sc_t=5997997289043 ps q=2
[NIC cqe_tap #1358] sc_t=5997997289043 ps q=3
[NIC cqe_tap #1359] sc_t=5998054821120 ps q=2
[NIC cqe_tap #1360] sc_t=5998054821120 ps q=3
[NIC cqe_tap #1361] sc_t=5998112353197 ps q=2
[NIC cqe_tap #1362] sc_t=5998112353197 ps q=3
[NIC cqe_tap #1363] sc_t=5998169885274 ps q=2
[NIC cqe_tap #1364] sc_t=5998169885274 ps q=3
[NIC cqe_tap #1365] sc_t=5998227417351 ps q=2
[NIC cqe_tap #1366] sc_t=5998227417351 ps q=3
[NIC cqe_tap #1367] sc_t=5998284949428 ps q=2
[NIC cqe_tap #1368] sc_t=5998284949428 ps q=3
[NIC cqe_tap #1369] sc_t=5998342481505 ps q=2
[NIC cqe_tap #1370] sc_t=5998342481505 ps q=3
[NIC cqe_tap #1371] sc_t=5998400013582 ps q=2
[NIC cqe_tap #1372] sc_t=5998400013582 ps q=3
[NIC cqe_tap #1373] sc_t=5998457545659 ps q=2
[NIC cqe_tap #1374] sc_t=5998457545659 ps q=3
[NIC cqe_tap #1375] sc_t=5998515077736 ps q=2
[NIC cqe_tap #1376] sc_t=5998515077736 ps q=3
[NIC cqe_tap #1377] sc_t=5998572609813 ps q=2
[NIC cqe_tap #1378] sc_t=5998572609813 ps q=3
[NIC cqe_tap #1379] sc_t=5998630141890 ps q=2
[NIC cqe_tap #1380] sc_t=5998630141890 ps q=3
[NIC cqe_tap #1381] sc_t=5998687673967 ps q=2
[NIC cqe_tap #1382] sc_t=5998687673967 ps q=3
[NIC cqe_tap #1383] sc_t=5998745206044 ps q=2
[NIC cqe_tap #1384] sc_t=5998745206044 ps q=3
[NIC cqe_tap #1385] sc_t=5998802738121 ps q=2
[NIC cqe_tap #1386] sc_t=5998802738121 ps q=3
[NIC cqe_tap #1387] sc_t=5998860270198 ps q=2
[NIC cqe_tap #1388] sc_t=5998860270198 ps q=3
[NIC cqe_tap #1389] sc_t=5998917802275 ps q=2
[NIC cqe_tap #1390] sc_t=5998917802275 ps q=3
[NIC cqe_tap #1391] sc_t=5998975334352 ps q=2
[NIC cqe_tap #1392] sc_t=5998975334352 ps q=3
[NIC cqe_tap #1393] sc_t=5999653469871 ps q=2
[NIC cqe_tap #1394] sc_t=5999653469871 ps q=3
[NIC cqe_tap #1395] sc_t=5999711001948 ps q=2
[NIC cqe_tap #1396] sc_t=5999711001948 ps q=3
[NIC cqe_tap #1397] sc_t=5999768534025 ps q=2
[NIC cqe_tap #1398] sc_t=5999768534025 ps q=3
[NIC cqe_tap #1399] sc_t=5999826066102 ps q=2
[NIC cqe_tap #1400] sc_t=5999826066102 ps q=3
[NIC cqe_tap #1401] sc_t=5999883598179 ps q=2
[NIC cqe_tap #1402] sc_t=5999883598179 ps q=3
[NIC cqe_tap #1403] sc_t=5999941130256 ps q=2
[NIC cqe_tap #1404] sc_t=5999941130256 ps q=3
[NIC cqe_tap #1405] sc_t=5999998662333 ps q=2
[NIC cqe_tap #1406] sc_t=5999998662333 ps q=3
[NIC cqe_tap #1407] sc_t=6000056194410 ps q=2
[NIC cqe_tap #1408] sc_t=6000056194410 ps q=3
[NIC_DECOMP] drains=4928 cum_cycles=2817 ethdec=2112 jsched=705
[NIC cqe_tap #1409] sc_t=6000113726487 ps q=2
[NIC cqe_tap #1410] sc_t=6000113726487 ps q=3
[NIC cqe_tap #1411] sc_t=6000171258564 ps q=2
[NIC cqe_tap #1412] sc_t=6000171258564 ps q=3
[NIC cqe_tap #1413] sc_t=6000228790641 ps q=2
[NIC cqe_tap #1414] sc_t=6000228790641 ps q=3
[NIC cqe_tap #1415] sc_t=6000286322718 ps q=2
[NIC cqe_tap #1416] sc_t=6000286322718 ps q=3
[NIC cqe_tap #1417] sc_t=6000343854795 ps q=2
[NIC cqe_tap #1418] sc_t=6000343854795 ps q=3
[NIC cqe_tap #1419] sc_t=6000401386872 ps q=2
[NIC cqe_tap #1420] sc_t=6000401386872 ps q=3
[NIC cqe_tap #1421] sc_t=6000458918949 ps q=2
[NIC cqe_tap #1422] sc_t=6000458918949 ps q=3
[NIC cqe_tap #1423] sc_t=6000516451026 ps q=2
[NIC cqe_tap #1424] sc_t=6000516451026 ps q=3
[NIC cqe_tap #1425] sc_t=6000573983103 ps q=2
[NIC cqe_tap #1426] sc_t=6000573983103 ps q=3
[NIC_DECOMP] drains=4992 cum_cycles=2854 ethdec=2139 jsched=715
[NIC cqe_tap #1427] sc_t=6000631515180 ps q=2
[NIC cqe_tap #1428] sc_t=6000631515180 ps q=3
[NIC cqe_tap #1429] sc_t=6000689047257 ps q=2
[NIC cqe_tap #1430] sc_t=6000689047257 ps q=3
[NIC cqe_tap #1431] sc_t=6000746579334 ps q=2
[NIC cqe_tap #1432] sc_t=6000746579334 ps q=3
[NIC cqe_tap #1433] sc_t=6000804111411 ps q=2
[NIC cqe_tap #1434] sc_t=6000804111411 ps q=3
[NIC cqe_tap #1435] sc_t=6000861643488 ps q=2
[NIC cqe_tap #1436] sc_t=6000861643488 ps q=3
[NIC cqe_tap #1437] sc_t=6000919175565 ps q=2
[NIC cqe_tap #1438] sc_t=6000919175565 ps q=3
[NIC cqe_tap #1439] sc_t=6000976707642 ps q=2
[NIC cqe_tap #1440] sc_t=6000976707642 ps q=3
[NIC cqe_tap #1441] sc_t=6001034239719 ps q=2
[NIC cqe_tap #1442] sc_t=6001034239719 ps q=3
[NIC cqe_tap #1443] sc_t=6001091771796 ps q=2
[NIC cqe_tap #1444] sc_t=6001091771796 ps q=3
[NIC cqe_tap #1445] sc_t=6001149303873 ps q=2
[NIC cqe_tap #1446] sc_t=6001149303873 ps q=3
[NIC cqe_tap #1447] sc_t=6001206835950 ps q=2
[NIC cqe_tap #1448] sc_t=6001206835950 ps q=3
[NIC cqe_tap #1449] sc_t=6001264368027 ps q=2
[NIC cqe_tap #1450] sc_t=6001264368027 ps q=3
[NIC cqe_tap #1451] sc_t=6001321900104 ps q=2
[NIC cqe_tap #1452] sc_t=6001321900104 ps q=3
[NIC cqe_tap #1453] sc_t=6001379432181 ps q=2
[NIC cqe_tap #1454] sc_t=6001379432181 ps q=3
[NIC cqe_tap #1455] sc_t=6001436964258 ps q=2
[NIC cqe_tap #1456] sc_t=6001436964258 ps q=3
[NIC cqe_tap #1457] sc_t=6001494496335 ps q=2
[NIC cqe_tap #1458] sc_t=6001494496335 ps q=3
[NIC cqe_tap #1459] sc_t=6001552028412 ps q=2
[NIC cqe_tap #1460] sc_t=6001552028412 ps q=3
[NIC cqe_tap #1461] sc_t=6001609560489 ps q=2
[NIC cqe_tap #1462] sc_t=6001609560489 ps q=3
[NIC cqe_tap #1463] sc_t=6001667092566 ps q=2
[NIC cqe_tap #1464] sc_t=6001667092566 ps q=3
[NIC cqe_tap #1465] sc_t=6001724624643 ps q=2
[NIC cqe_tap #1466] sc_t=6001724624643 ps q=3
[NIC cqe_tap #1467] sc_t=6001782156720 ps q=2
[NIC cqe_tap #1468] sc_t=6001782156720 ps q=3
[NIC cqe_tap #1469] sc_t=6001839688797 ps q=2
[NIC cqe_tap #1470] sc_t=6001839688797 ps q=3
[NIC cqe_tap #1471] sc_t=6002723418516 ps q=2
[NIC cqe_tap #1472] sc_t=6002723418516 ps q=3
[NIC cqe_tap #1473] sc_t=6002726499432 ps q=2
[NIC cqe_tap #1474] sc_t=6002726499432 ps q=3
[NIC cqe_tap #1475] sc_t=6002729580348 ps q=2
[NIC cqe_tap #1476] sc_t=6002729580348 ps q=3
[NIC cqe_tap #1477] sc_t=6002732661264 ps q=2
[NIC cqe_tap #1478] sc_t=6002732661264 ps q=3
[NIC cqe_tap #1479] sc_t=6002735742180 ps q=2
[NIC cqe_tap #1480] sc_t=6002735742180 ps q=3
[NIC cqe_tap #1481] sc_t=6002738823096 ps q=2
[NIC cqe_tap #1482] sc_t=6002738823096 ps q=3
[NIC cqe_tap #1483] sc_t=6002741904012 ps q=2
[NIC cqe_tap #1484] sc_t=6002741904012 ps q=3
[NIC cqe_tap #1485] sc_t=6002744984928 ps q=2
[NIC cqe_tap #1486] sc_t=6002744984928 ps q=3
[NIC cqe_tap #1487] sc_t=6002748065844 ps q=2
[NIC cqe_tap #1488] sc_t=6002748065844 ps q=3
[NIC cqe_tap #1489] sc_t=6002751146760 ps q=2
[NIC cqe_tap #1490] sc_t=6002751146760 ps q=3
[NIC cqe_tap #1491] sc_t=6002754227676 ps q=2
[NIC cqe_tap #1492] sc_t=6002754227676 ps q=3
[NIC cqe_tap #1493] sc_t=6002757308592 ps q=2
[NIC cqe_tap #1494] sc_t=6002757308592 ps q=3
[NIC cqe_tap #1495] sc_t=6002760389508 ps q=2
[NIC cqe_tap #1496] sc_t=6002760389508 ps q=3
[NIC cqe_tap #1497] sc_t=6002763470424 ps q=2
[NIC cqe_tap #1498] sc_t=6002763470424 ps q=3
[NIC cqe_tap #1499] sc_t=6002766551340 ps q=2
[NIC cqe_tap #1500] sc_t=6002766551340 ps q=3
[NIC cqe_tap #1501] sc_t=6002769632256 ps q=2
[NIC cqe_tap #1502] sc_t=6002769632256 ps q=3
[...]
[NIC cqe_tap #5777] sc_t=6089857156224 ps q=2
[NIC cqe_tap #5778] sc_t=6089857156224 ps q=3
[NIC_DECOMP] drains=20224 cum_cycles=11558 ethdec=8667 jsched=2891
[NIC cqe_tap #5779] sc_t=6089862792915 ps q=2
[NIC cqe_tap #5780] sc_t=6089862792915 ps q=3
[NIC cqe_tap #5781] sc_t=6089868429606 ps q=2
[NIC cqe_tap #5782] sc_t=6089868429606 ps q=3
[NIC cqe_tap #5783] sc_t=6089874066297 ps q=2
[NIC cqe_tap #5784] sc_t=6089874066297 ps q=3
[NIC cqe_tap #5785] sc_t=6089879702988 ps q=2
[NIC cqe_tap #5786] sc_t=6089879702988 ps q=3
[NIC cqe_tap #5787] sc_t=6089885339679 ps q=2
[NIC cqe_tap #5788] sc_t=6089885339679 ps q=3
[NIC cqe_tap #5789] sc_t=6089890976370 ps q=2
[NIC cqe_tap #5790] sc_t=6089890976370 ps q=3
[NIC cqe_tap #5791] sc_t=6089896613061 ps q=2
[NIC cqe_tap #5792] sc_t=6089896613061 ps q=3
[NIC cqe_tap #5793] sc_t=6089902249752 ps q=2
[NIC cqe_tap #5794] sc_t=6089902249752 ps q=3
[NIC cqe_tap #5795] sc_t=6089907886443 ps q=2
[NIC cqe_tap #5796] sc_t=6089907886443 ps q=3
[NIC cqe_tap #5797] sc_t=6089913523134 ps q=2
[NIC cqe_tap #5798] sc_t=6089913523134 ps q=3
[NIC cqe_tap #5799] sc_t=6089919159825 ps q=2
[NIC cqe_tap #5800] sc_t=6089919159825 ps q=3
[NIC cqe_tap #5801] sc_t=6089924796516 ps q=2
[NIC cqe_tap #5802] sc_t=6089924796516 ps q=3
[NIC cqe_tap #5803] sc_t=6089930433207 ps q=2
[NIC cqe_tap #5804] sc_t=6089930433207 ps q=3
[NIC cqe_tap #5805] sc_t=6089936069898 ps q=2
[NIC cqe_tap #5806] sc_t=6089936069898 ps q=3
[NIC cqe_tap #5807] sc_t=6089941706589 ps q=2
[NIC cqe_tap #5808] sc_t=6089941706589 ps q=3
[NIC cqe_tap #5809] sc_t=6089947343280 ps q=2
[NIC cqe_tap #5810] sc_t=6089947343280 ps q=3
[NIC cqe_tap #5811] sc_t=6089952979971 ps q=2
[NIC cqe_tap #5812] sc_t=6089952979971 ps q=3
[NIC cqe_tap #5813] sc_t=6089958616662 ps q=2
[NIC cqe_tap #5814] sc_t=6089958616662 ps q=3
[NIC cqe_tap #5815] sc_t=6089964253353 ps q=2
[NIC cqe_tap #5816] sc_t=6089964253353 ps q=3
[NIC cqe_tap #5817] sc_t=6089969890044 ps q=2
[NIC cqe_tap #5818] sc_t=6089969890044 ps q=3
[NIC cqe_tap #5819] sc_t=6089975526735 ps q=2
[NIC cqe_tap #5820] sc_t=6089975526735 ps q=3
[NIC cqe_tap #5821] sc_t=6089981163426 ps q=2
[NIC cqe_tap #5822] sc_t=6089981163426 ps q=3
[NIC cqe_tap #5823] sc_t=6089986800117 ps q=2
[NIC cqe_tap #5824] sc_t=6089986800117 ps q=3
[NIC cqe_tap #5825] sc_t=6089992436808 ps q=2
[NIC cqe_tap #5826] sc_t=6089992436808 ps q=3
[NIC cqe_tap #5827] sc_t=6089998073499 ps q=2
[NIC cqe_tap #5828] sc_t=6089998073499 ps q=3
[NIC cqe_tap #5829] sc_t=6090003710190 ps q=2
[NIC cqe_tap #5830] sc_t=6090003710190 ps q=3
[NIC cqe_tap #5831] sc_t=6090009346881 ps q=2
[NIC cqe_tap #5832] sc_t=6090009346881 ps q=3
[NIC cqe_tap #5833] sc_t=6090014983572 ps q=2
[NIC cqe_tap #5834] sc_t=6090014983572 ps q=3
[NIC cqe_tap #5835] sc_t=6090020620263 ps q=2
[NIC cqe_tap #5836] sc_t=6090020620263 ps q=3
[NIC cqe_tap #5837] sc_t=6090026256954 ps q=2
[NIC cqe_tap #5838] sc_t=6090026256954 ps q=3
[NIC cqe_tap #5839] sc_t=6090031893645 ps q=2
[NIC cqe_tap #5840] sc_t=6090031893645 ps q=3
[NIC cqe_tap #5841] sc_t=6090037530336 ps q=2
[NIC cqe_tap #5842] sc_t=6090037530336 ps q=3
[NIC cqe_tap #5843] sc_t=6090043167027 ps q=2
[NIC cqe_tap #5844] sc_t=6090043167027 ps q=3
[NIC cqe_tap #5845] sc_t=6090048803718 ps q=2
[NIC cqe_tap #5846] sc_t=6090048803718 ps q=3
[NIC cqe_tap #5847] sc_t=6090054440409 ps q=2
[NIC cqe_tap #5848] sc_t=6090054440409 ps q=3
[NIC cqe_tap #5849] sc_t=6090060077100 ps q=2
[NIC cqe_tap #5850] sc_t=6090060077100 ps q=3
[NIC cqe_tap #5851] sc_t=6090065713791 ps q=2
[NIC cqe_tap #5852] sc_t=6090065713791 ps q=3
[NIC cqe_tap #5853] sc_t=6090071350482 ps q=2
[NIC cqe_tap #5854] sc_t=6090071350482 ps q=3
[NIC cqe_tap #5855] sc_t=6090076987173 ps q=2
[NIC cqe_tap #5856] sc_t=6090076987173 ps q=3
[NIC cqe_tap #5857] sc_t=6090082623864 ps q=2
[NIC cqe_tap #5858] sc_t=6090082623864 ps q=3
[NIC cqe_tap #5859] sc_t=6090088260555 ps q=2
[NIC cqe_tap #5860] sc_t=6090088260555 ps q=3
[NIC cqe_tap #5861] sc_t=6090093897246 ps q=2
[NIC cqe_tap #5862] sc_t=6090093897246 ps q=3
[NIC cqe_tap #5863] sc_t=6090099533937 ps q=2
[NIC cqe_tap #5864] sc_t=6090099533937 ps q=3
[NIC cqe_tap #5865] sc_t=6090105170628 ps q=2
[NIC cqe_tap #5866] sc_t=6090105170628 ps q=3
[NIC cqe_tap #5867] sc_t=6090110807319 ps q=2
[NIC cqe_tap #5868] sc_t=6090110807319 ps q=3
[NIC cqe_tap #5869] sc_t=6090116444010 ps q=2
[NIC cqe_tap #5870] sc_t=6090116444010 ps q=3
[NIC cqe_tap #5871] sc_t=6090122080701 ps q=2
[NIC cqe_tap #5872] sc_t=6090122080701 ps q=3
[NIC cqe_tap #5873] sc_t=6090127717392 ps q=2
[NIC cqe_tap #5874] sc_t=6090127717392 ps q=3
[NIC cqe_tap #5875] sc_t=6090133354083 ps q=2
[NIC cqe_tap #5876] sc_t=6090133354083 ps q=3
[NIC cqe_tap #5877] sc_t=6090138990774 ps q=2
[NIC cqe_tap #5878] sc_t=6090138990774 ps q=3
[NIC cqe_tap #5879] sc_t=6090144627465 ps q=2
[NIC cqe_tap #5880] sc_t=6090144627465 ps q=3
[NIC cqe_tap #5881] sc_t=6090150264156 ps q=2
[NIC cqe_tap #5882] sc_t=6090150264156 ps q=3
[NIC cqe_tap #5883] sc_t=6090155900847 ps q=2
[NIC cqe_tap #5884] sc_t=6090155900847 ps q=3
[NIC cqe_tap #5885] sc_t=6090161537538 ps q=2
[NIC cqe_tap #5886] sc_t=6090161537538 ps q=3
[NIC cqe_tap #5887] sc_t=6090167174229 ps q=2
[NIC cqe_tap #5888] sc_t=6090167174229 ps q=3
[NIC_DECOMP] drains=20608 cum_cycles=11777 ethdec=8832 jsched=2945
[NIC cqe_tap #5889] sc_t=6090172810920 ps q=2
[NIC cqe_tap #5890] sc_t=6090172810920 ps q=3
[NIC cqe_tap #5891] sc_t=6090178447611 ps q=2
[NIC cqe_tap #5892] sc_t=6090178447611 ps q=3
[NIC cqe_tap #5893] sc_t=6090184084302 ps q=2
[NIC cqe_tap #5894] sc_t=6090184084302 ps q=3
[NIC cqe_tap #5895] sc_t=6090189720993 ps q=2
[NIC cqe_tap #5896] sc_t=6090189720993 ps q=3
[NIC cqe_tap #5897] sc_t=6090195357684 ps q=2
[NIC cqe_tap #5898] sc_t=6090195357684 ps q=3
[NIC cqe_tap #5899] sc_t=6090200994375 ps q=2
[NIC cqe_tap #5900] sc_t=6090200994375 ps q=3
[NIC cqe_tap #5901] sc_t=6090206631066 ps q=2
[NIC cqe_tap #5902] sc_t=6090206631066 ps q=3
[NIC cqe_tap #5903] sc_t=6090212267757 ps q=2
[NIC cqe_tap #5904] sc_t=6090212267757 ps q=3
[NIC cqe_tap #5905] sc_t=6090217904448 ps q=2
[NIC cqe_tap #5906] sc_t=6090217904448 ps q=3
[NIC_DECOMP] drains=20672 cum_cycles=11814 ethdec=8859 jsched=2955
[NIC cqe_tap #5907] sc_t=6090223541139 ps q=2
[NIC cqe_tap #5908] sc_t=6090223541139 ps q=3
[NIC cqe_tap #5909] sc_t=6090229177830 ps q=2
[NIC cqe_tap #5910] sc_t=6090229177830 ps q=3
[NIC cqe_tap #5911] sc_t=6090234814521 ps q=2
[NIC cqe_tap #5912] sc_t=6090234814521 ps q=3
[NIC cqe_tap #5913] sc_t=6090240451212 ps q=2
[NIC cqe_tap #5914] sc_t=6090240451212 ps q=3
[NIC cqe_tap #5915] sc_t=6090246087903 ps q=2
[NIC cqe_tap #5916] sc_t=6090246087903 ps q=3
[NIC cqe_tap #5917] sc_t=6090251724594 ps q=2
[NIC cqe_tap #5918] sc_t=6090251724594 ps q=3
[NIC cqe_tap #5919] sc_t=6090257361285 ps q=2
[NIC cqe_tap #5920] sc_t=6090257361285 ps q=3
[NIC cqe_tap #5921] sc_t=6090262997976 ps q=2
[NIC cqe_tap #5922] sc_t=6090262997976 ps q=3
[NIC cqe_tap #5923] sc_t=6090268634667 ps q=2
[NIC cqe_tap #5924] sc_t=6090268634667 ps q=3
[NIC cqe_tap #5925] sc_t=6090274271358 ps q=2
[NIC cqe_tap #5926] sc_t=6090274271358 ps q=3
[NIC cqe_tap #5927] sc_t=6090279908049 ps q=2
[NIC cqe_tap #5928] sc_t=6090279908049 ps q=3
[NIC cqe_tap #5929] sc_t=6090285544740 ps q=2
[NIC cqe_tap #5930] sc_t=6090285544740 ps q=3
[NIC cqe_tap #5931] sc_t=6090291181431 ps q=2
[NIC cqe_tap #5932] sc_t=6090291181431 ps q=3
[NIC cqe_tap #5933] sc_t=6090296818122 ps q=2
[NIC cqe_tap #5934] sc_t=6090296818122 ps q=3
[NIC cqe_tap #5935] sc_t=6090302454813 ps q=2
[NIC cqe_tap #5936] sc_t=6090302454813 ps q=3
[NIC cqe_tap #5937] sc_t=6090308091504 ps q=2
[NIC cqe_tap #5938] sc_t=6090308091504 ps q=3
[NIC cqe_tap #5939] sc_t=6090313728195 ps q=2
[NIC cqe_tap #5940] sc_t=6090313728195 ps q=3
[NIC cqe_tap #5941] sc_t=6090319364886 ps q=2
[NIC cqe_tap #5942] sc_t=6090319364886 ps q=3
[NIC cqe_tap #5943] sc_t=6090325001577 ps q=2
[NIC cqe_tap #5944] sc_t=6090325001577 ps q=3
[NIC cqe_tap #5945] sc_t=6090330638268 ps q=2
[NIC cqe_tap #5946] sc_t=6090330638268 ps q=3
[NIC cqe_tap #5947] sc_t=6090336274959 ps q=2
[NIC cqe_tap #5948] sc_t=6090336274959 ps q=3
[NIC cqe_tap #5949] sc_t=6090341911650 ps q=2
[NIC cqe_tap #5950] sc_t=6090341911650 ps q=3
[NIC cqe_tap #5951] sc_t=6090347548341 ps q=2
[NIC cqe_tap #5952] sc_t=6090347548341 ps q=3
[NIC cqe_tap #5953] sc_t=6090353185032 ps q=2
[NIC cqe_tap #5954] sc_t=6090353185032 ps q=3
[NIC cqe_tap #5955] sc_t=6090358821723 ps q=2
[NIC cqe_tap #5956] sc_t=6090358821723 ps q=3
[NIC cqe_tap #5957] sc_t=6090364458414 ps q=2
[NIC cqe_tap #5958] sc_t=6090364458414 ps q=3
[NIC cqe_tap #5959] sc_t=6090370095105 ps q=2
[NIC cqe_tap #5960] sc_t=6090370095105 ps q=3
[NIC cqe_tap #5961] sc_t=6090375731796 ps q=2
[NIC cqe_tap #5962] sc_t=6090375731796 ps q=3
[NIC cqe_tap #5963] sc_t=6090381368487 ps q=2
[NIC cqe_tap #5964] sc_t=6090381368487 ps q=3
[NIC cqe_tap #5965] sc_t=6090387005178 ps q=2
[NIC cqe_tap #5966] sc_t=6090387005178 ps q=3
[NIC cqe_tap #5967] sc_t=6090392641869 ps q=2
[NIC cqe_tap #5968] sc_t=6090392641869 ps q=3
[NIC cqe_tap #5969] sc_t=6090398278560 ps q=2
[NIC cqe_tap #5970] sc_t=6090398278560 ps q=3
[NIC cqe_tap #5971] sc_t=6090403915251 ps q=2
[NIC cqe_tap #5972] sc_t=6090403915251 ps q=3
[NIC cqe_tap #5973] sc_t=6090409551942 ps q=2
[NIC cqe_tap #5974] sc_t=6090409551942 ps q=3
[NIC cqe_tap #5975] sc_t=6090415188633 ps q=2
[NIC cqe_tap #5976] sc_t=6090415188633 ps q=3
[NIC cqe_tap #5977] sc_t=6090420825324 ps q=2
[NIC cqe_tap #5978] sc_t=6090420825324 ps q=3
[NIC cqe_tap #5979] sc_t=6090426462015 ps q=2
[NIC cqe_tap #5980] sc_t=6090426462015 ps q=3
[NIC cqe_tap #5981] sc_t=6090432098706 ps q=2
[NIC cqe_tap #5982] sc_t=6090432098706 ps q=3
[NIC cqe_tap #5983] sc_t=6090437735397 ps q=2
[NIC cqe_tap #5984] sc_t=6090437735397 ps q=3
[NIC cqe_tap #5985] sc_t=6090443372088 ps q=2
[NIC cqe_tap #5986] sc_t=6090443372088 ps q=3
[NIC cqe_tap #5987] sc_t=6090449008779 ps q=2
[NIC cqe_tap #5988] sc_t=6090449008779 ps q=3
[NIC cqe_tap #5989] sc_t=6090454645470 ps q=2
[NIC cqe_tap #5990] sc_t=6090454645470 ps q=3
[NIC cqe_tap #5991] sc_t=6090460282161 ps q=2
[NIC cqe_tap #5992] sc_t=6090460282161 ps q=3
[NIC cqe_tap #5993] sc_t=6090465918852 ps q=2
[NIC cqe_tap #5994] sc_t=6090465918852 ps q=3
[NIC cqe_tap #5995] sc_t=6090471555543 ps q=2
[NIC cqe_tap #5996] sc_t=6090471555543 ps q=3
[NIC cqe_tap #5997] sc_t=6090477192234 ps q=2
[NIC cqe_tap #5998] sc_t=6090477192234 ps q=3
[NIC cqe_tap #5999] sc_t=6090482828925 ps q=2
[NIC cqe_tap #6000] sc_t=6090482828925 ps q=3
[NIC cqe_tap #6001] sc_t=6090488465616 ps q=2
[NIC cqe_tap #6002] sc_t=6090488465616 ps q=3
[NIC cqe_tap #6003] sc_t=6090494102307 ps q=2
[NIC cqe_tap #6004] sc_t=6090494102307 ps q=3
[NIC cqe_tap #6005] sc_t=6090499738998 ps q=2
[NIC cqe_tap #6006] sc_t=6090499738998 ps q=3
[NIC cqe_tap #6007] sc_t=6090505375689 ps q=2
[NIC cqe_tap #6008] sc_t=6090505375689 ps q=3
[NIC cqe_tap #6009] sc_t=6090511012380 ps q=2
[NIC cqe_tap #6010] sc_t=6090511012380 ps q=3
[NIC cqe_tap #6011] sc_t=6090516649071 ps q=2
[NIC cqe_tap #6012] sc_t=6090516649071 ps q=3
[NIC cqe_tap #6013] sc_t=6090522285762 ps q=2
[NIC cqe_tap #6014] sc_t=6090522285762 ps q=3
[NIC cqe_tap #6015] sc_t=6090527922453 ps q=2
[NIC cqe_tap #6016] sc_t=6090527922453 ps q=3
[NIC_DECOMP] drains=21056 cum_cycles=12033 ethdec=9024 jsched=3009
[NIC cqe_tap #6017] sc_t=6090533559144 ps q=2
[NIC cqe_tap #6018] sc_t=6090533559144 ps q=3
[NIC cqe_tap #6019] sc_t=6090539195835 ps q=2
[NIC cqe_tap #6020] sc_t=6090539195835 ps q=3
[NIC cqe_tap #6021] sc_t=6090544832526 ps q=2
[NIC cqe_tap #6022] sc_t=6090544832526 ps q=3
[NIC cqe_tap #6023] sc_t=6090550469217 ps q=2
[NIC cqe_tap #6024] sc_t=6090550469217 ps q=3
[NIC cqe_tap #6025] sc_t=6090556105908 ps q=2
[NIC cqe_tap #6026] sc_t=6090556105908 ps q=3
[NIC cqe_tap #6027] sc_t=6090561742599 ps q=2
[NIC cqe_tap #6028] sc_t=6090561742599 ps q=3
[NIC cqe_tap #6029] sc_t=6090567379290 ps q=2
[NIC cqe_tap #6030] sc_t=6090567379290 ps q=3
[NIC cqe_tap #6031] sc_t=6090573015981 ps q=2
[NIC cqe_tap #6032] sc_t=6090573015981 ps q=3
[NIC cqe_tap #6033] sc_t=6090578652672 ps q=2
[NIC cqe_tap #6034] sc_t=6090578652672 ps q=3
[NIC_DECOMP] drains=21120 cum_cycles=12070 ethdec=9051 jsched=3019
[NIC cqe_tap #6035] sc_t=6090584289363 ps q=2
[NIC cqe_tap #6036] sc_t=6090584289363 ps q=3
[NIC cqe_tap #6037] sc_t=6090589926054 ps q=2
[NIC cqe_tap #6038] sc_t=6090589926054 ps q=3
[NIC cqe_tap #6039] sc_t=6090595562745 ps q=2
[NIC cqe_tap #6040] sc_t=6090595562745 ps q=3
[NIC cqe_tap #6041] sc_t=6090601199436 ps q=2
[NIC cqe_tap #6042] sc_t=6090601199436 ps q=3
[NIC cqe_tap #6043] sc_t=6090606836127 ps q=2
[NIC cqe_tap #6044] sc_t=6090606836127 ps q=3
[NIC cqe_tap #6045] sc_t=6090612472818 ps q=2
[NIC cqe_tap #6046] sc_t=6090612472818 ps q=3
[NIC cqe_tap #6047] sc_t=6090618109509 ps q=2
[NIC cqe_tap #6048] sc_t=6090618109509 ps q=3
[NIC cqe_tap #6049] sc_t=6090623746200 ps q=2
[NIC cqe_tap #6050] sc_t=6090623746200 ps q=3
[NIC cqe_tap #6051] sc_t=6090629382891 ps q=2
[NIC cqe_tap #6052] sc_t=6090629382891 ps q=3
[NIC cqe_tap #6053] sc_t=6090635019582 ps q=2
[NIC cqe_tap #6054] sc_t=6090635019582 ps q=3
[NIC cqe_tap #6055] sc_t=6090640656273 ps q=2
[NIC cqe_tap #6056] sc_t=6090640656273 ps q=3
[NIC cqe_tap #6057] sc_t=6090646292964 ps q=2
[NIC cqe_tap #6058] sc_t=6090646292964 ps q=3
[NIC cqe_tap #6059] sc_t=6090651929655 ps q=2
[NIC cqe_tap #6060] sc_t=6090651929655 ps q=3
[NIC cqe_tap #6061] sc_t=6090657566346 ps q=2
[NIC cqe_tap #6062] sc_t=6090657566346 ps q=3
[NIC cqe_tap #6063] sc_t=6090663203037 ps q=2
[NIC cqe_tap #6064] sc_t=6090663203037 ps q=3
[NIC cqe_tap #6065] sc_t=6090668839728 ps q=2
[NIC cqe_tap #6066] sc_t=6090668839728 ps q=3
[NIC cqe_tap #6067] sc_t=6090674476419 ps q=2
[NIC cqe_tap #6068] sc_t=6090674476419 ps q=3
[NIC cqe_tap #6069] sc_t=6090680113110 ps q=2
[NIC cqe_tap #6070] sc_t=6090680113110 ps q=3
[NIC cqe_tap #6071] sc_t=6090685749801 ps q=2
[NIC cqe_tap #6072] sc_t=6090685749801 ps q=3
[NIC cqe_tap #6073] sc_t=6090691386492 ps q=2
[NIC cqe_tap #6074] sc_t=6090691386492 ps q=3
[NIC cqe_tap #6075] sc_t=6090697023183 ps q=2
[NIC cqe_tap #6076] sc_t=6090697023183 ps q=3
[NIC cqe_tap #6077] sc_t=6090702659874 ps q=2
[NIC cqe_tap #6078] sc_t=6090702659874 ps q=3
[NIC cqe_tap #6079] sc_t=6091391998845 ps q=2
[NIC cqe_tap #6080] sc_t=6091391998845 ps q=3
[NIC cqe_tap #6081] sc_t=6091397965872 ps q=2
[NIC cqe_tap #6082] sc_t=6091397965872 ps q=3
[NIC cqe_tap #6083] sc_t=6091403932899 ps q=2
[NIC cqe_tap #6084] sc_t=6091403932899 ps q=3
[NIC cqe_tap #6085] sc_t=6091409899926 ps q=2
[NIC cqe_tap #6086] sc_t=6091409899926 ps q=3
[NIC cqe_tap #6087] sc_t=6091415866953 ps q=2
[NIC cqe_tap #6088] sc_t=6091415866953 ps q=3
[NIC cqe_tap #6089] sc_t=6091421833980 ps q=2
[NIC cqe_tap #6090] sc_t=6091421833980 ps q=3
[NIC cqe_tap #6091] sc_t=6091427801007 ps q=2
[NIC cqe_tap #6092] sc_t=6091427801007 ps q=3
[NIC cqe_tap #6093] sc_t=6091433768034 ps q=2
[NIC cqe_tap #6094] sc_t=6091433768034 ps q=3
[NIC cqe_tap #6095] sc_t=6091439735061 ps q=2
[NIC cqe_tap #6096] sc_t=6091439735061 ps q=3
[NIC cqe_tap #6097] sc_t=6091445702088 ps q=2
[NIC cqe_tap #6098] sc_t=6091445702088 ps q=3
[NIC cqe_tap #6099] sc_t=6091451669115 ps q=2
[NIC cqe_tap #6100] sc_t=6091451669115 ps q=3
[NIC cqe_tap #6101] sc_t=6091457636142 ps q=2
[NIC cqe_tap #6102] sc_t=6091457636142 ps q=3
[NIC cqe_tap #6103] sc_t=6091463603169 ps q=2
[NIC cqe_tap #6104] sc_t=6091463603169 ps q=3
[NIC cqe_tap #6105] sc_t=6091469570196 ps q=2
[NIC cqe_tap #6106] sc_t=6091469570196 ps q=3
[NIC cqe_tap #6107] sc_t=6091475537223 ps q=2
[NIC cqe_tap #6108] sc_t=6091475537223 ps q=3
[NIC cqe_tap #6109] sc_t=6091481504250 ps q=2
[NIC cqe_tap #6110] sc_t=6091481504250 ps q=3
[NIC cqe_tap #6111] sc_t=6091945900389 ps q=2
[NIC cqe_tap #6112] sc_t=6091945900389 ps q=3
[NIC cqe_tap #6113] sc_t=6091951867416 ps q=2
[NIC cqe_tap #6114] sc_t=6091951867416 ps q=3
[NIC cqe_tap #6115] sc_t=6091957834443 ps q=2
[NIC cqe_tap #6116] sc_t=6091957834443 ps q=3
[NIC cqe_tap #6117] sc_t=6091963801470 ps q=2
[NIC cqe_tap #6118] sc_t=6091963801470 ps q=3
[NIC cqe_tap #6119] sc_t=6091969768497 ps q=2
[NIC cqe_tap #6120] sc_t=6091969768497 ps q=3
[NIC cqe_tap #6121] sc_t=6091975735524 ps q=2
[NIC cqe_tap #6122] sc_t=6091975735524 ps q=3
[NIC cqe_tap #6123] sc_t=6091981702551 ps q=2
[NIC cqe_tap #6124] sc_t=6091981702551 ps q=3
[NIC cqe_tap #6125] sc_t=6091987669578 ps q=2
[NIC cqe_tap #6126] sc_t=6091987669578 ps q=3
[NIC cqe_tap #6127] sc_t=6091993636605 ps q=2
[NIC cqe_tap #6128] sc_t=6091993636605 ps q=3
[NIC cqe_tap #6129] sc_t=6091999603632 ps q=2
[NIC cqe_tap #6130] sc_t=6091999603632 ps q=3
[NIC cqe_tap #6131] sc_t=6092005570659 ps q=2
[NIC cqe_tap #6132] sc_t=6092005570659 ps q=3
[NIC cqe_tap #6133] sc_t=6092011537686 ps q=2
[NIC cqe_tap #6134] sc_t=6092011537686 ps q=3
[NIC cqe_tap #6135] sc_t=6092017504713 ps q=2
[NIC cqe_tap #6136] sc_t=6092017504713 ps q=3
[NIC cqe_tap #6137] sc_t=6092023471740 ps q=2
[NIC cqe_tap #6138] sc_t=6092023471740 ps q=3
[NIC cqe_tap #6139] sc_t=6092029438767 ps q=2
[NIC cqe_tap #6140] sc_t=6092029438767 ps q=3
[NIC cqe_tap #6141] sc_t=6092035405794 ps q=2
[NIC cqe_tap #6142] sc_t=6092035405794 ps q=3
[NIC cqe_tap #6143] sc_t=6092496652086 ps q=2
[NIC cqe_tap #6144] sc_t=6092496652086 ps q=3
[NIC_DECOMP] drains=21504 cum_cycles=12289 ethdec=9216 jsched=3073
[NIC cqe_tap #6145] sc_t=6092502619113 ps q=2
[NIC cqe_tap #6146] sc_t=6092502619113 ps q=3
[NIC cqe_tap #6147] sc_t=6092508586140 ps q=2
[NIC cqe_tap #6148] sc_t=6092508586140 ps q=3
[NIC cqe_tap #6149] sc_t=6092514553167 ps q=2
[NIC cqe_tap #6150] sc_t=6092514553167 ps q=3
[NIC cqe_tap #6151] sc_t=6092520520194 ps q=2
[NIC cqe_tap #6152] sc_t=6092520520194 ps q=3
[NIC cqe_tap #6153] sc_t=6092526487221 ps q=2
[NIC cqe_tap #6154] sc_t=6092526487221 ps q=3
[NIC cqe_tap #6155] sc_t=6092532454248 ps q=2
[NIC cqe_tap #6156] sc_t=6092532454248 ps q=3
[NIC cqe_tap #6157] sc_t=6092538421275 ps q=2
[NIC cqe_tap #6158] sc_t=6092538421275 ps q=3
[NIC cqe_tap #6159] sc_t=6092544388302 ps q=2
[NIC cqe_tap #6160] sc_t=6092544388302 ps q=3
[NIC cqe_tap #6161] sc_t=6092550355329 ps q=2
[NIC cqe_tap #6162] sc_t=6092550355329 ps q=3
[NIC_DECOMP] drains=21568 cum_cycles=12326 ethdec=9243 jsched=3083
[NIC cqe_tap #6163] sc_t=6092556322356 ps q=2
[NIC cqe_tap #6164] sc_t=6092556322356 ps q=3
[NIC cqe_tap #6165] sc_t=6092562289383 ps q=2
[NIC cqe_tap #6166] sc_t=6092562289383 ps q=3
[NIC cqe_tap #6167] sc_t=6092568256410 ps q=2
[NIC cqe_tap #6168] sc_t=6092568256410 ps q=3
[NIC cqe_tap #6169] sc_t=6092574223437 ps q=2
[NIC cqe_tap #6170] sc_t=6092574223437 ps q=3
[NIC cqe_tap #6171] sc_t=6092580190464 ps q=2
[NIC cqe_tap #6172] sc_t=6092580190464 ps q=3
[NIC cqe_tap #6173] sc_t=6092586157491 ps q=2
[NIC cqe_tap #6174] sc_t=6092586157491 ps q=3
[NIC cqe_tap #6175] sc_t=6093045497358 ps q=2
[NIC cqe_tap #6176] sc_t=6093045497358 ps q=3
[NIC cqe_tap #6177] sc_t=6093051340509 ps q=2
[NIC cqe_tap #6178] sc_t=6093051340509 ps q=3
[NIC cqe_tap #6179] sc_t=6093057183660 ps q=2
[NIC cqe_tap #6180] sc_t=6093057183660 ps q=3
[NIC cqe_tap #6181] sc_t=6093063026811 ps q=2
[NIC cqe_tap #6182] sc_t=6093063026811 ps q=3
[NIC cqe_tap #6183] sc_t=6093068869962 ps q=2
[NIC cqe_tap #6184] sc_t=6093068869962 ps q=3
[NIC cqe_tap #6185] sc_t=6093074713113 ps q=2
[NIC cqe_tap #6186] sc_t=6093074713113 ps q=3
[NIC cqe_tap #6187] sc_t=6093080556264 ps q=2
[NIC cqe_tap #6188] sc_t=6093080556264 ps q=3
[NIC cqe_tap #6189] sc_t=6093086399415 ps q=2
[NIC cqe_tap #6190] sc_t=6093086399415 ps q=3
[NIC_DECOMP] drains=21696 cum_cycles=12381 ethdec=9285 jsched=3096
[NIC_DECOMP] drains=21760 cum_cycles=12381 ethdec=9285 jsched=3096
[NIC_DECOMP] drains=21824 cum_cycles=12381 ethdec=9285 jsched=3096
[NIC_DECOMP] drains=21888 cum_cycles=12381 ethdec=9285 jsched=3096
[NIC_DECOMP] drains=21952 cum_cycles=12381 ethdec=9285 jsched=3096
[NIC_DECOMP] drains=22016 cum_cycles=12381 ethdec=9285 jsched=3096
[NIC_DECOMP] drains=22080 cum_cycles=12381 ethdec=9285 jsched=3096
