Global frequency set at 1000000000000 ticks per second
warn: No dot file generated. Please install pydot to generate the dot file and pdf.
src/mem/dram_interface.cc:690: warn: DRAM device capacity (8192 Mbytes) does not match the address range assigned (2048 Mbytes)
src/sim/kernel_workload.cc:46: info: kernel located at: /tmp/gem5_sys/binaries/vmlinux
src/base/loader/symtab.cc:95: warn: Cannot insert a new symbol table due to name collisions. Adding prefix to each symbol's name can resolve this issue.
src/base/statistics.hh:279: warn: One of the stats is a legacy stat. Legacy stat is a stat that does not belong to any statistics::Group. Legacy stat is deprecated.
[NICTopologySC system.nic] constructed; 38-module TLM topology online
src/base/vnc/vncserver.cc:163: warn: Sockets disabled, not accepting vnc client connections
src/dev/serial/terminal.cc:174: warn: Sockets disabled, not accepting terminal connections
src/base/remote_gdb.cc:418: warn: Sockets disabled, not accepting gdb connections
src/arch/arm/fs_workload.cc:121: info: Using bootloader at address 0x10
src/arch/arm/fs_workload.cc:139: info: Using kernel entry physical address at 0x80080000
src/arch/arm/linux/fs_workload.cc:98: info: Loading initrd file: /home/ubuntu/OpenURMA/eval/twonode/gem5_scaffold/driver/initramfs.cpio.gz at address 0x88200000
src/arch/arm/linux/fs_workload.cc:111: info: Loading DTB file: /tmp/m5_expH3_rpc/system.dtb at address 0x88000000
src/dev/arm/energy_ctrl.cc:252: warn: Existing EnergyCtrl, but no enabled DVFSHandler found.
gem5 Simulator System.  https://www.gem5.org
gem5 is copyrighted software; use the --copyright option for details.

gem5 version 24.0.0.1
gem5 compiled May 27 2026 04:14:26
gem5 started May 27 2026 07:23:31
gem5 executing on ubuntu, pid 3719030
command line: /home/ubuntu/gem5/build/ARM/gem5.opt --outdir=/tmp/m5_expH3_rpc /home/ubuntu/OpenURMA/eval/twonode/gem5_scaffold/configs/single_node_fs_clean.py --kernel=vmlinux --initrd=/home/ubuntu/OpenURMA/eval/twonode/gem5_scaffold/driver/initramfs.cpio.gz --mem-size=2GB --link-delay-ns=0 --cpu atomic --extra-cmdline urma_rpc

info: Standard input is not a terminal, disabling listeners.
[single_node_fs_clean] booting kernel=vmlinux
src/sim/simulate.cc:199: info: Entering event queue @ 0.  Starting simulation...
src/dev/arm/rv_ctrl.cc:176: warn: SCReg: Access to unknown device dcc0:site0:pos0:fn7:dev0
src/dev/arm/rv_ctrl.cc:122: warn: Tried to read RealView I/O at offset 0x60 that doesn't exist
src/dev/arm/rv_ctrl.cc:122: warn: Tried to read RealView I/O at offset 0x48 that doesn't exist
src/dev/arm/rv_ctrl.cc:198: warn: Tried to write RVIO at offset 0xa8 (data 0) that doesn't exist
src/dev/arm/rv_ctrl.cc:198: warn: Tried to write RVIO at offset 0xa8 (data 0) that doesn't exist
src/dev/arm/rv_ctrl.cc:198: warn: Tried to write RVIO at offset 0xa8 (data 0) that doesn't exist
src/dev/arm/rv_ctrl.cc:198: warn: Tried to write RVIO at offset 0xa8 (data 0) that doesn't exist
src/dev/arm/rv_ctrl.cc:198: warn: Tried to write RVIO at offset 0xa8 (data 0) that doesn't exist
src/dev/arm/rv_ctrl.cc:198: warn: Tried to write RVIO at offset 0xa8 (data 0) that doesn't exist
src/dev/arm/rv_ctrl.cc:198: warn: Tried to write RVIO at offset 0xa8 (data 0) that doesn't exist
src/dev/arm/rv_ctrl.cc:198: warn: Tried to write RVIO at offset 0xa8 (data 0) that doesn't exist
src/dev/arm/rv_ctrl.cc:198: warn: Tried to write RVIO at offset 0xa8 (data 0) that doesn't exist
src/dev/arm/rv_ctrl.cc:198: warn: Tried to write RVIO at offset 0xa8 (data 0) that doesn't exist
src/dev/arm/rv_ctrl.cc:122: warn: Tried to read RealView I/O at offset 0x8 that doesn't exist
src/dev/arm/rv_ctrl.cc:122: warn: Tried to read RealView I/O at offset 0x48 that doesn't exist
src/dev/arm/energy_ctrl.cc:77: warn: EnergyCtrl: Disabled handler, ignoring read from reg 0
src/arch/arm/insts/pseudo.cc:174: warn: 	instruction 'bti' unimplemented
[NIC mmio_b] cmd=W off=0x0 len=8 cq_q=0 sc_t=195572013552 ps
[NIC mmio_b] cmd=W off=0x8 len=8 cq_q=0 sc_t=195572013885 ps
[NIC mmio_b] cmd=W off=0x10 len=8 cq_q=0 sc_t=195572014218 ps
[NIC mmio_b] cmd=W off=0x18 len=8 cq_q=0 sc_t=195572014551 ps
[NIC mmio_b] cmd=W off=0x20 len=8 cq_q=0 sc_t=195572016216 ps
[NIC mmio_b] cmd=W off=0x28 len=8 cq_q=0 sc_t=195572016549 ps
[NIC mmio_b] cmd=W off=0x30 len=8 cq_q=0 sc_t=195572016882 ps
[NIC mmio_b] cmd=W off=0x38 len=8 cq_q=0 sc_t=195572017215 ps
[NIC mmio_b] cmd=W off=0x0 len=8 cq_q=0 sc_t=195572019213 ps
[NIC mmio_b] cmd=W off=0x8 len=8 cq_q=0 sc_t=195572019546 ps
[NIC mmio_b] cmd=W off=0x10 len=8 cq_q=0 sc_t=195572019879 ps
[NIC mmio_b] cmd=W off=0x18 len=8 cq_q=0 sc_t=195572020212 ps
[NIC mmio_b] cmd=W off=0x20 len=8 cq_q=0 sc_t=195572021877 ps
[NIC mmio_b] cmd=W off=0x28 len=8 cq_q=0 sc_t=195572022210 ps
[NIC mmio_b] cmd=W off=0x30 len=8 cq_q=0 sc_t=195572022543 ps
[NIC mmio_b] cmd=W off=0x38 len=8 cq_q=0 sc_t=195572022876 ps
[NIC wire_tx_tap #1] sc_t=195572022876 ps
[NIC wire_rx_b #1] sc_t=195572022876 ps cqe_q=0
[NIC wire_tx_tap #2] sc_t=195572022876 ps
[NIC wire_rx_b #2] sc_t=195572022876 ps cqe_q=0
[NIC wire_tx_tap #3] sc_t=195572022876 ps
[NIC wire_rx_b #3] sc_t=195572022876 ps cqe_q=0
[NIC wire_tx_tap #4] sc_t=195572022876 ps
[NIC wire_rx_b #4] sc_t=195572022876 ps cqe_q=0
[NIC wire_tx_tap #5] sc_t=195572022876 ps
[NIC wire_rx_b #5] sc_t=195572022876 ps cqe_q=0
[NIC cqe_tap #1] sc_t=195572022876 ps q=1
[NIC cqe_tap #2] sc_t=195572022876 ps q=2
[NIC wire_rx_b #5] drained, cqe_q=2
[NIC wire_rx_b #5] drained, cqe_q=2
[NIC wire_rx_b #5] drained, cqe_q=2
[NIC wire_rx_b #5] drained, cqe_q=2
[NIC wire_rx_b #5] drained, cqe_q=2
[NIC mmio_b] cmd=R off=0x40 len=16 cq_q=2 sc_t=195572024874 ps
[NIC mmio_b] cmd=R off=0x50 len=16 cq_q=1 sc_t=195572025207 ps
[NIC mmio_b] cmd=R off=0x60 len=16 cq_q=1 sc_t=195572027538 ps
[NIC mmio_b] cmd=R off=0x70 len=16 cq_q=1 sc_t=195572027871 ps
[NIC mmio_b] cmd=W off=0x0 len=8 cq_q=1 sc_t=195582794094 ps
[NIC mmio_b] cmd=W off=0x8 len=8 cq_q=1 sc_t=195582796092 ps
[NIC mmio_b] cmd=W off=0x10 len=8 cq_q=1 sc_t=195582798090 ps
[NIC mmio_b] cmd=W off=0x18 len=8 cq_q=1 sc_t=195582800088 ps
[NIC mmio_b] cmd=W off=0x20 len=8 cq_q=1 sc_t=195582802086 ps
[NIC mmio_b] cmd=W off=0x28 len=8 cq_q=1 sc_t=195582804084 ps
[NIC mmio_b] cmd=W off=0x30 len=8 cq_q=1 sc_t=195582806082 ps
[NIC mmio_b] cmd=W off=0x38 len=8 cq_q=1 sc_t=195582808080 ps
[NIC mmio_b] cmd=W off=0x0 len=8 cq_q=1 sc_t=195582817404 ps
[NIC mmio_b] cmd=W off=0x8 len=8 cq_q=1 sc_t=195582819402 ps
[NIC mmio_b] cmd=W off=0x10 len=8 cq_q=1 sc_t=195582821400 ps
[NIC mmio_b] cmd=W off=0x18 len=8 cq_q=1 sc_t=195582823398 ps
[NIC mmio_b] cmd=W off=0x20 len=8 cq_q=1 sc_t=195582825396 ps
[NIC mmio_b] cmd=W off=0x28 len=8 cq_q=1 sc_t=195582827394 ps
[NIC mmio_b] cmd=W off=0x30 len=8 cq_q=1 sc_t=195582829392 ps
[NIC mmio_b] cmd=W off=0x38 len=8 cq_q=1 sc_t=195582831390 ps
[NIC wire_tx_tap #6] sc_t=195582831390 ps
[NIC wire_rx_b #6] sc_t=195582831390 ps cqe_q=1
[NIC wire_tx_tap #7] sc_t=195582831390 ps
[NIC wire_rx_b #7] sc_t=195582831390 ps cqe_q=1
[NIC wire_tx_tap #8] sc_t=195582831390 ps
[NIC wire_rx_b #8] sc_t=195582831390 ps cqe_q=1
[NIC wire_tx_tap #9] sc_t=195582831390 ps
[NIC wire_rx_b #9] sc_t=195582831390 ps cqe_q=1
[NIC wire_tx_tap #10] sc_t=195582831390 ps
[NIC wire_rx_b #10] sc_t=195582831390 ps cqe_q=1
[NIC cqe_tap #3] sc_t=195582831390 ps q=2
[NIC cqe_tap #4] sc_t=195582831390 ps q=3
[NIC wire_rx_b #10] drained, cqe_q=3
[NIC wire_rx_b #10] drained, cqe_q=3
[NIC wire_rx_b #10] drained, cqe_q=3
[NIC wire_rx_b #10] drained, cqe_q=3
[NIC wire_rx_b #10] drained, cqe_q=3
[NIC mmio_b] cmd=R off=0x40 len=8 cq_q=3 sc_t=195583074480 ps
[NIC mmio_b] cmd=R off=0x48 len=8 cq_q=1 sc_t=195583076478 ps
[NIC mmio_b] cmd=R off=0x50 len=8 cq_q=1 sc_t=195583078476 ps
[NIC mmio_b] cmd=R off=0x58 len=8 cq_q=1 sc_t=195583080474 ps
[NIC mmio_b] cmd=R off=0x60 len=8 cq_q=1 sc_t=195583082472 ps
[NIC mmio_b] cmd=R off=0x68 len=8 cq_q=1 sc_t=195583084470 ps
[NIC mmio_b] cmd=R off=0x70 len=8 cq_q=1 sc_t=195583086468 ps
[NIC mmio_b] cmd=R off=0x78 len=8 cq_q=1 sc_t=195583088466 ps
[NIC mmio_b] cmd=W off=0x0 len=8 cq_q=1 sc_t=195589088460 ps
[NIC mmio_b] cmd=W off=0x8 len=8 cq_q=1 sc_t=195589090458 ps
[NIC mmio_b] cmd=W off=0x10 len=8 cq_q=1 sc_t=195589092456 ps
[NIC mmio_b] cmd=W off=0x18 len=8 cq_q=1 sc_t=195589094454 ps
[NIC mmio_b] cmd=W off=0x20 len=8 cq_q=1 sc_t=195589096452 ps
[NIC mmio_b] cmd=W off=0x28 len=8 cq_q=1 sc_t=195589098450 ps
[NIC mmio_b] cmd=W off=0x30 len=8 cq_q=1 sc_t=195589100448 ps
[NIC mmio_b] cmd=W off=0x38 len=8 cq_q=1 sc_t=195589102446 ps
[NIC mmio_b] cmd=W off=0x0 len=8 cq_q=1 sc_t=195589111770 ps
[NIC mmio_b] cmd=W off=0x8 len=8 cq_q=1 sc_t=195589113768 ps
[NIC mmio_b] cmd=W off=0x10 len=8 cq_q=1 sc_t=195589115766 ps
[NIC mmio_b] cmd=W off=0x18 len=8 cq_q=1 sc_t=195589117764 ps
[NIC mmio_b] cmd=W off=0x20 len=8 cq_q=1 sc_t=195589119762 ps
[NIC mmio_b] cmd=W off=0x28 len=8 cq_q=1 sc_t=195589121760 ps
[NIC mmio_b] cmd=W off=0x30 len=8 cq_q=1 sc_t=195589123758 ps
[NIC mmio_b] cmd=W off=0x38 len=8 cq_q=1 sc_t=195589125756 ps
[NIC wire_tx_tap #11] sc_t=195589125756 ps
[NIC wire_rx_b #11] sc_t=195589125756 ps cqe_q=1
[NIC wire_tx_tap #12] sc_t=195589125756 ps
[NIC wire_rx_b #12] sc_t=195589125756 ps cqe_q=1
[NIC wire_tx_tap #13] sc_t=195589125756 ps
[NIC wire_rx_b #13] sc_t=195589125756 ps cqe_q=1
[NIC wire_tx_tap #14] sc_t=195589125756 ps
[NIC wire_rx_b #14] sc_t=195589125756 ps cqe_q=1
[NIC wire_tx_tap #15] sc_t=195589125756 ps
[NIC wire_rx_b #15] sc_t=195589125756 ps cqe_q=1
[NIC cqe_tap #5] sc_t=195589125756 ps q=2
[NIC cqe_tap #6] sc_t=195589125756 ps q=3
[NIC wire_rx_b #15] drained, cqe_q=3
[NIC wire_rx_b #15] drained, cqe_q=3
[NIC wire_rx_b #15] drained, cqe_q=3
[NIC wire_rx_b #15] drained, cqe_q=3
[NIC wire_rx_b #15] drained, cqe_q=3
[NIC wire_tx_tap #16] sc_t=195596561313 ps
[NIC wire_rx_b #16] sc_t=195596561313 ps cqe_q=1
[NIC wire_tx_tap #17] sc_t=195596561313 ps
[NIC wire_tx_tap #18] sc_t=195596561313 ps
[NIC wire_tx_tap #19] sc_t=195596561313 ps
[NIC wire_tx_tap #20] sc_t=195596561313 ps
[NIC cqe_tap #7] sc_t=195596561313 ps q=2
[NIC cqe_tap #8] sc_t=195596561313 ps q=3
[NIC wire_tx_tap #21] sc_t=195596608266 ps
[NIC wire_tx_tap #22] sc_t=195596608266 ps
[NIC wire_tx_tap #23] sc_t=195596608266 ps
[NIC wire_tx_tap #24] sc_t=195596608266 ps
[NIC wire_tx_tap #25] sc_t=195596608266 ps
[NIC cqe_tap #9] sc_t=195596608266 ps q=2
[NIC cqe_tap #10] sc_t=195596608266 ps q=3
[NIC wire_tx_tap #26] sc_t=195596655219 ps
[NIC wire_tx_tap #27] sc_t=195596655219 ps
[NIC wire_tx_tap #28] sc_t=195596655219 ps
[NIC wire_tx_tap #29] sc_t=195596655219 ps
[NIC wire_tx_tap #30] sc_t=195596655219 ps
[NIC cqe_tap #11] sc_t=195596655219 ps q=2
[NIC cqe_tap #12] sc_t=195596655219 ps q=3
[NIC wire_tx_tap #31] sc_t=195596702172 ps
[NIC wire_tx_tap #32] sc_t=195596702172 ps
[NIC cqe_tap #13] sc_t=195596702172 ps q=2
[NIC cqe_tap #14] sc_t=195596702172 ps q=3
[NIC cqe_tap #15] sc_t=195603950583 ps q=2
[NIC cqe_tap #16] sc_t=195603950583 ps q=3
[NIC cqe_tap #17] sc_t=195604457742 ps q=2
[NIC cqe_tap #18] sc_t=195604457742 ps q=3
[NIC cqe_tap #19] sc_t=195604964901 ps q=2
[NIC cqe_tap #20] sc_t=195604964901 ps q=3
[NIC cqe_tap #21] sc_t=195605472060 ps q=2
[NIC cqe_tap #22] sc_t=195605472060 ps q=3
[NIC cqe_tap #23] sc_t=195611766426 ps q=2
[NIC cqe_tap #24] sc_t=195611766426 ps q=3
[NIC cqe_tap #25] sc_t=195612922269 ps q=2
[NIC cqe_tap #26] sc_t=195612922269 ps q=3
[NIC cqe_tap #27] sc_t=195614078112 ps q=2
[NIC cqe_tap #28] sc_t=195614078112 ps q=3
[NIC cqe_tap #29] sc_t=195615233955 ps q=2
[NIC cqe_tap #30] sc_t=195615233955 ps q=3
[NIC cqe_tap #31] sc_t=195622669512 ps q=2
[NIC cqe_tap #32] sc_t=195622669512 ps q=3
[NIC cqe_tap #33] sc_t=195622716465 ps q=2
[NIC cqe_tap #34] sc_t=195622716465 ps q=3
[NIC cqe_tap #35] sc_t=195622763418 ps q=2
[NIC cqe_tap #36] sc_t=195622763418 ps q=3
[NIC cqe_tap #37] sc_t=195622810371 ps q=2
[NIC cqe_tap #38] sc_t=195622810371 ps q=3
[NIC cqe_tap #39] sc_t=195622857324 ps q=2
[NIC cqe_tap #40] sc_t=195622857324 ps q=3
[NIC cqe_tap #41] sc_t=195622904277 ps q=2
[NIC cqe_tap #42] sc_t=195622904277 ps q=3
[NIC cqe_tap #43] sc_t=195622951230 ps q=2
[NIC cqe_tap #44] sc_t=195622951230 ps q=3
[NIC cqe_tap #45] sc_t=195622998183 ps q=2
[NIC cqe_tap #46] sc_t=195622998183 ps q=3
[NIC cqe_tap #47] sc_t=195623045136 ps q=2
[NIC cqe_tap #48] sc_t=195623045136 ps q=3
[NIC cqe_tap #49] sc_t=195623092089 ps q=2
[NIC cqe_tap #50] sc_t=195623092089 ps q=3
[NIC cqe_tap #51] sc_t=195623139042 ps q=2
[NIC cqe_tap #52] sc_t=195623139042 ps q=3
[NIC cqe_tap #53] sc_t=195623185995 ps q=2
[NIC cqe_tap #54] sc_t=195623185995 ps q=3
[NIC cqe_tap #55] sc_t=195623232948 ps q=2
[NIC cqe_tap #56] sc_t=195623232948 ps q=3
[NIC cqe_tap #57] sc_t=195623279901 ps q=2
[NIC cqe_tap #58] sc_t=195623279901 ps q=3
[NIC cqe_tap #59] sc_t=195623326854 ps q=2
[NIC cqe_tap #60] sc_t=195623326854 ps q=3
[NIC cqe_tap #61] sc_t=195623373807 ps q=2
[NIC cqe_tap #62] sc_t=195623373807 ps q=3
[NIC cqe_tap #63] sc_t=195630453054 ps q=2
[NIC cqe_tap #64] sc_t=195630453054 ps q=3
[NIC cqe_tap #65] sc_t=195630960213 ps q=2
[NIC cqe_tap #66] sc_t=195630960213 ps q=3
[NIC cqe_tap #67] sc_t=195631467372 ps q=2
[NIC cqe_tap #68] sc_t=195631467372 ps q=3
[NIC cqe_tap #69] sc_t=195631974531 ps q=2
[NIC cqe_tap #70] sc_t=195631974531 ps q=3
[NIC cqe_tap #71] sc_t=195632481690 ps q=2
[NIC cqe_tap #72] sc_t=195632481690 ps q=3
[NIC cqe_tap #73] sc_t=195632988849 ps q=2
[NIC cqe_tap #74] sc_t=195632988849 ps q=3
[NIC cqe_tap #75] sc_t=195633496008 ps q=2
[NIC cqe_tap #76] sc_t=195633496008 ps q=3
[NIC cqe_tap #77] sc_t=195634003167 ps q=2
[NIC cqe_tap #78] sc_t=195634003167 ps q=3
[NIC cqe_tap #79] sc_t=195634510326 ps q=2
[NIC cqe_tap #80] sc_t=195634510326 ps q=3
[NIC cqe_tap #81] sc_t=195635017485 ps q=2
[NIC cqe_tap #82] sc_t=195635017485 ps q=3
[NIC cqe_tap #83] sc_t=195635524644 ps q=2
[NIC cqe_tap #84] sc_t=195635524644 ps q=3
[NIC cqe_tap #85] sc_t=195636031803 ps q=2
[NIC cqe_tap #86] sc_t=195636031803 ps q=3
[NIC cqe_tap #87] sc_t=195636538962 ps q=2
[NIC cqe_tap #88] sc_t=195636538962 ps q=3
[NIC cqe_tap #89] sc_t=195637046121 ps q=2
[NIC cqe_tap #90] sc_t=195637046121 ps q=3
[NIC cqe_tap #91] sc_t=195637553280 ps q=2
[NIC cqe_tap #92] sc_t=195637553280 ps q=3
[NIC cqe_tap #93] sc_t=195638060439 ps q=2
[NIC cqe_tap #94] sc_t=195638060439 ps q=3
[NIC cqe_tap #95] sc_t=195644428398 ps q=2
[NIC cqe_tap #96] sc_t=195644428398 ps q=3
[NIC cqe_tap #97] sc_t=195645584241 ps q=2
[NIC cqe_tap #98] sc_t=195645584241 ps q=3
[NIC cqe_tap #99] sc_t=195646740084 ps q=2
[NIC cqe_tap #100] sc_t=195646740084 ps q=3
[NIC cqe_tap #101] sc_t=195647895927 ps q=2
[NIC cqe_tap #102] sc_t=195647895927 ps q=3
[NIC cqe_tap #103] sc_t=195649051770 ps q=2
[NIC cqe_tap #104] sc_t=195649051770 ps q=3
[NIC cqe_tap #105] sc_t=195650207613 ps q=2
[NIC cqe_tap #106] sc_t=195650207613 ps q=3
[NIC cqe_tap #107] sc_t=195651363456 ps q=2
[NIC cqe_tap #108] sc_t=195651363456 ps q=3
[NIC cqe_tap #109] sc_t=195652519299 ps q=2
[NIC cqe_tap #110] sc_t=195652519299 ps q=3
[NIC cqe_tap #111] sc_t=195653675142 ps q=2
[NIC cqe_tap #112] sc_t=195653675142 ps q=3
[NIC cqe_tap #113] sc_t=195654830985 ps q=2
[NIC cqe_tap #114] sc_t=195654830985 ps q=3
[NIC cqe_tap #115] sc_t=195655986828 ps q=2
[NIC cqe_tap #116] sc_t=195655986828 ps q=3
[NIC cqe_tap #117] sc_t=195657142671 ps q=2
[NIC cqe_tap #118] sc_t=195657142671 ps q=3
[NIC cqe_tap #119] sc_t=195658298514 ps q=2
[NIC cqe_tap #120] sc_t=195658298514 ps q=3
[NIC cqe_tap #121] sc_t=195659454357 ps q=2
[NIC cqe_tap #122] sc_t=195659454357 ps q=3
[NIC cqe_tap #123] sc_t=195660610200 ps q=2
[NIC cqe_tap #124] sc_t=195660610200 ps q=3
[NIC cqe_tap #125] sc_t=195661766043 ps q=2
[NIC cqe_tap #126] sc_t=195661766043 ps q=3
[NIC cqe_tap #127] sc_t=195669411390 ps q=2
[NIC cqe_tap #128] sc_t=195669411390 ps q=3
[NIC cqe_tap #129] sc_t=195669458343 ps q=2
[NIC cqe_tap #130] sc_t=195669458343 ps q=3
[NIC cqe_tap #131] sc_t=195669505296 ps q=2
[NIC cqe_tap #132] sc_t=195669505296 ps q=3
[NIC cqe_tap #133] sc_t=195669552249 ps q=2
[NIC cqe_tap #134] sc_t=195669552249 ps q=3
[NIC cqe_tap #135] sc_t=195669599202 ps q=2
[NIC cqe_tap #136] sc_t=195669599202 ps q=3
[NIC cqe_tap #137] sc_t=195669646155 ps q=2
[NIC cqe_tap #138] sc_t=195669646155 ps q=3
[NIC cqe_tap #139] sc_t=195669693108 ps q=2
[NIC cqe_tap #140] sc_t=195669693108 ps q=3
[NIC cqe_tap #141] sc_t=195669740061 ps q=2
[NIC cqe_tap #142] sc_t=195669740061 ps q=3
[NIC cqe_tap #143] sc_t=195669787014 ps q=2
[NIC cqe_tap #144] sc_t=195669787014 ps q=3
[NIC cqe_tap #145] sc_t=195669833967 ps q=2
[NIC cqe_tap #146] sc_t=195669833967 ps q=3
[NIC cqe_tap #147] sc_t=195669880920 ps q=2
[NIC cqe_tap #148] sc_t=195669880920 ps q=3
[NIC cqe_tap #149] sc_t=195669927873 ps q=2
[NIC cqe_tap #150] sc_t=195669927873 ps q=3
[NIC cqe_tap #151] sc_t=195669974826 ps q=2
[NIC cqe_tap #152] sc_t=195669974826 ps q=3
[NIC cqe_tap #153] sc_t=195670021779 ps q=2
[NIC cqe_tap #154] sc_t=195670021779 ps q=3
[NIC cqe_tap #155] sc_t=195670068732 ps q=2
[NIC cqe_tap #156] sc_t=195670068732 ps q=3
[NIC cqe_tap #157] sc_t=195670115685 ps q=2
[NIC cqe_tap #158] sc_t=195670115685 ps q=3
[NIC cqe_tap #159] sc_t=195670162638 ps q=2
[NIC cqe_tap #160] sc_t=195670162638 ps q=3
[NIC cqe_tap #161] sc_t=195670209591 ps q=2
[NIC cqe_tap #162] sc_t=195670209591 ps q=3
[NIC cqe_tap #163] sc_t=195670256544 ps q=2
[NIC cqe_tap #164] sc_t=195670256544 ps q=3
[NIC cqe_tap #165] sc_t=195670303497 ps q=2
[NIC cqe_tap #166] sc_t=195670303497 ps q=3
[NIC cqe_tap #167] sc_t=195670350450 ps q=2
[NIC cqe_tap #168] sc_t=195670350450 ps q=3
[NIC cqe_tap #169] sc_t=195670397403 ps q=2
[NIC cqe_tap #170] sc_t=195670397403 ps q=3
[NIC cqe_tap #171] sc_t=195670444356 ps q=2
[NIC cqe_tap #172] sc_t=195670444356 ps q=3
[NIC cqe_tap #173] sc_t=195670491309 ps q=2
[NIC cqe_tap #174] sc_t=195670491309 ps q=3
[NIC cqe_tap #175] sc_t=195670538262 ps q=2
[NIC cqe_tap #176] sc_t=195670538262 ps q=3
[NIC cqe_tap #177] sc_t=195670585215 ps q=2
[NIC cqe_tap #178] sc_t=195670585215 ps q=3
[NIC cqe_tap #179] sc_t=195670632168 ps q=2
[NIC cqe_tap #180] sc_t=195670632168 ps q=3
[NIC cqe_tap #181] sc_t=195670679121 ps q=2
[NIC cqe_tap #182] sc_t=195670679121 ps q=3
[NIC cqe_tap #183] sc_t=195670726074 ps q=2
[NIC cqe_tap #184] sc_t=195670726074 ps q=3
[NIC cqe_tap #185] sc_t=195670773027 ps q=2
[NIC cqe_tap #186] sc_t=195670773027 ps q=3
[NIC cqe_tap #187] sc_t=195670819980 ps q=2
[NIC cqe_tap #188] sc_t=195670819980 ps q=3
[NIC cqe_tap #189] sc_t=195670866933 ps q=2
[NIC cqe_tap #190] sc_t=195670866933 ps q=3
[NIC cqe_tap #191] sc_t=195670913886 ps q=2
[NIC cqe_tap #192] sc_t=195670913886 ps q=3
[NIC cqe_tap #193] sc_t=195670960839 ps q=2
[NIC cqe_tap #194] sc_t=195670960839 ps q=3
[NIC cqe_tap #195] sc_t=195671007792 ps q=2
[NIC cqe_tap #196] sc_t=195671007792 ps q=3
[NIC cqe_tap #197] sc_t=195671054745 ps q=2
[NIC cqe_tap #198] sc_t=195671054745 ps q=3
[NIC cqe_tap #199] sc_t=195671101698 ps q=2
[NIC cqe_tap #200] sc_t=195671101698 ps q=3
[NIC cqe_tap #201] sc_t=195671148651 ps q=2
[NIC cqe_tap #202] sc_t=195671148651 ps q=3
[NIC cqe_tap #203] sc_t=195671195604 ps q=2
[NIC cqe_tap #204] sc_t=195671195604 ps q=3
[NIC cqe_tap #205] sc_t=195671242557 ps q=2
[NIC cqe_tap #206] sc_t=195671242557 ps q=3
[NIC cqe_tap #207] sc_t=195671289510 ps q=2
[NIC cqe_tap #208] sc_t=195671289510 ps q=3
[NIC cqe_tap #209] sc_t=195671336463 ps q=2
[NIC cqe_tap #210] sc_t=195671336463 ps q=3
[NIC cqe_tap #211] sc_t=195671383416 ps q=2
[NIC cqe_tap #212] sc_t=195671383416 ps q=3
[NIC cqe_tap #213] sc_t=195671430369 ps q=2
[NIC cqe_tap #214] sc_t=195671430369 ps q=3
[NIC cqe_tap #215] sc_t=195671477322 ps q=2
[NIC cqe_tap #216] sc_t=195671477322 ps q=3
[NIC cqe_tap #217] sc_t=195671524275 ps q=2
[NIC cqe_tap #218] sc_t=195671524275 ps q=3
[NIC cqe_tap #219] sc_t=195671571228 ps q=2
[NIC cqe_tap #220] sc_t=195671571228 ps q=3
[NIC cqe_tap #221] sc_t=195671618181 ps q=2
[NIC cqe_tap #222] sc_t=195671618181 ps q=3
[NIC cqe_tap #223] sc_t=195671665134 ps q=2
[NIC cqe_tap #224] sc_t=195671665134 ps q=3
[NIC cqe_tap #225] sc_t=195671712087 ps q=2
[NIC cqe_tap #226] sc_t=195671712087 ps q=3
[NIC cqe_tap #227] sc_t=195671759040 ps q=2
[NIC cqe_tap #228] sc_t=195671759040 ps q=3
[NIC cqe_tap #229] sc_t=195671805993 ps q=2
[NIC cqe_tap #230] sc_t=195671805993 ps q=3
[NIC cqe_tap #231] sc_t=195671852946 ps q=2
[NIC cqe_tap #232] sc_t=195671852946 ps q=3
[NIC cqe_tap #233] sc_t=195671899899 ps q=2
[NIC cqe_tap #234] sc_t=195671899899 ps q=3
[NIC cqe_tap #235] sc_t=195671946852 ps q=2
[NIC cqe_tap #236] sc_t=195671946852 ps q=3
[NIC cqe_tap #237] sc_t=195671993805 ps q=2
[NIC cqe_tap #238] sc_t=195671993805 ps q=3
[NIC cqe_tap #239] sc_t=195672040758 ps q=2
[NIC cqe_tap #240] sc_t=195672040758 ps q=3
[NIC cqe_tap #241] sc_t=195672087711 ps q=2
[NIC cqe_tap #242] sc_t=195672087711 ps q=3
[NIC cqe_tap #243] sc_t=195672134664 ps q=2
[NIC cqe_tap #244] sc_t=195672134664 ps q=3
[NIC cqe_tap #245] sc_t=195672181617 ps q=2
[NIC cqe_tap #246] sc_t=195672181617 ps q=3
[NIC cqe_tap #247] sc_t=195672228570 ps q=2
[NIC cqe_tap #248] sc_t=195672228570 ps q=3
[NIC cqe_tap #249] sc_t=195672275523 ps q=2
[NIC cqe_tap #250] sc_t=195672275523 ps q=3
[NIC cqe_tap #251] sc_t=195672322476 ps q=2
[NIC cqe_tap #252] sc_t=195672322476 ps q=3
[NIC cqe_tap #253] sc_t=195672369429 ps q=2
[NIC cqe_tap #254] sc_t=195672369429 ps q=3
[NIC cqe_tap #255] sc_t=195679448343 ps q=2
[NIC cqe_tap #256] sc_t=195679448343 ps q=3
[NIC cqe_tap #257] sc_t=195679955502 ps q=2
[NIC cqe_tap #258] sc_t=195679955502 ps q=3
[NIC cqe_tap #259] sc_t=195680462661 ps q=2
[NIC cqe_tap #260] sc_t=195680462661 ps q=3
[NIC cqe_tap #261] sc_t=195680969820 ps q=2
[NIC cqe_tap #262] sc_t=195680969820 ps q=3
[NIC cqe_tap #263] sc_t=195681476979 ps q=2
[NIC cqe_tap #264] sc_t=195681476979 ps q=3
[NIC cqe_tap #265] sc_t=195681984138 ps q=2
[NIC cqe_tap #266] sc_t=195681984138 ps q=3
[NIC cqe_tap #267] sc_t=195682491297 ps q=2
[NIC cqe_tap #268] sc_t=195682491297 ps q=3
[NIC cqe_tap #269] sc_t=195682998456 ps q=2
[NIC cqe_tap #270] sc_t=195682998456 ps q=3
[NIC cqe_tap #271] sc_t=195683505615 ps q=2
[NIC cqe_tap #272] sc_t=195683505615 ps q=3
[NIC cqe_tap #273] sc_t=195684012774 ps q=2
[NIC cqe_tap #274] sc_t=195684012774 ps q=3
[NIC cqe_tap #275] sc_t=195684519933 ps q=2
[NIC cqe_tap #276] sc_t=195684519933 ps q=3
[NIC cqe_tap #277] sc_t=195685027092 ps q=2
[NIC cqe_tap #278] sc_t=195685027092 ps q=3
[NIC cqe_tap #279] sc_t=195685534251 ps q=2
[NIC cqe_tap #280] sc_t=195685534251 ps q=3
[NIC cqe_tap #281] sc_t=195686041410 ps q=2
[NIC cqe_tap #282] sc_t=195686041410 ps q=3
[NIC cqe_tap #283] sc_t=195686548569 ps q=2
[NIC cqe_tap #284] sc_t=195686548569 ps q=3
[NIC cqe_tap #285] sc_t=195687055728 ps q=2
[NIC cqe_tap #286] sc_t=195687055728 ps q=3
[NIC cqe_tap #287] sc_t=195687562887 ps q=2
[NIC cqe_tap #288] sc_t=195687562887 ps q=3
[NIC cqe_tap #289] sc_t=195688070046 ps q=2
[NIC cqe_tap #290] sc_t=195688070046 ps q=3
[NIC cqe_tap #291] sc_t=195688577205 ps q=2
[NIC cqe_tap #292] sc_t=195688577205 ps q=3
[NIC cqe_tap #293] sc_t=195689084364 ps q=2
[NIC cqe_tap #294] sc_t=195689084364 ps q=3
[NIC cqe_tap #295] sc_t=195689591523 ps q=2
[NIC cqe_tap #296] sc_t=195689591523 ps q=3
[NIC cqe_tap #297] sc_t=195690098682 ps q=2
[NIC cqe_tap #298] sc_t=195690098682 ps q=3
[NIC cqe_tap #299] sc_t=195690605841 ps q=2
[NIC cqe_tap #300] sc_t=195690605841 ps q=3
[NIC cqe_tap #301] sc_t=195691113 ns q=2
[NIC cqe_tap #302] sc_t=195691113 ns q=3
[NIC cqe_tap #303] sc_t=195691620159 ps q=2
[NIC cqe_tap #304] sc_t=195691620159 ps q=3
[NIC cqe_tap #305] sc_t=195692127318 ps q=2
[NIC cqe_tap #306] sc_t=195692127318 ps q=3
[NIC cqe_tap #307] sc_t=195692634477 ps q=2
[NIC cqe_tap #308] sc_t=195692634477 ps q=3
[NIC cqe_tap #309] sc_t=195693141636 ps q=2
[NIC cqe_tap #310] sc_t=195693141636 ps q=3
[NIC cqe_tap #311] sc_t=195693648795 ps q=2
[NIC cqe_tap #312] sc_t=195693648795 ps q=3
[NIC cqe_tap #313] sc_t=195694155954 ps q=2
[NIC cqe_tap #314] sc_t=195694155954 ps q=3
[NIC cqe_tap #315] sc_t=195694663113 ps q=2
[NIC cqe_tap #316] sc_t=195694663113 ps q=3
[NIC cqe_tap #317] sc_t=195695170272 ps q=2
[NIC cqe_tap #318] sc_t=195695170272 ps q=3
[NIC cqe_tap #319] sc_t=195695677431 ps q=2
[NIC cqe_tap #320] sc_t=195695677431 ps q=3
[NIC cqe_tap #321] sc_t=195696184590 ps q=2
[NIC cqe_tap #322] sc_t=195696184590 ps q=3
[NIC cqe_tap #323] sc_t=195696691749 ps q=2
[NIC cqe_tap #324] sc_t=195696691749 ps q=3
[NIC cqe_tap #325] sc_t=195697198908 ps q=2
[NIC cqe_tap #326] sc_t=195697198908 ps q=3
[NIC cqe_tap #327] sc_t=195697706067 ps q=2
[NIC cqe_tap #328] sc_t=195697706067 ps q=3
[NIC cqe_tap #329] sc_t=195698213226 ps q=2
[NIC cqe_tap #330] sc_t=195698213226 ps q=3
[NIC cqe_tap #331] sc_t=195698720385 ps q=2
[NIC cqe_tap #332] sc_t=195698720385 ps q=3
[NIC cqe_tap #333] sc_t=195699227544 ps q=2
[NIC cqe_tap #334] sc_t=195699227544 ps q=3
[NIC cqe_tap #335] sc_t=195699734703 ps q=2
[NIC cqe_tap #336] sc_t=195699734703 ps q=3
[NIC cqe_tap #337] sc_t=195700241862 ps q=2
[NIC cqe_tap #338] sc_t=195700241862 ps q=3
[NIC cqe_tap #339] sc_t=195700749021 ps q=2
[NIC cqe_tap #340] sc_t=195700749021 ps q=3
[NIC cqe_tap #341] sc_t=195701256180 ps q=2
[NIC cqe_tap #342] sc_t=195701256180 ps q=3
[NIC cqe_tap #343] sc_t=195701763339 ps q=2
[NIC cqe_tap #344] sc_t=195701763339 ps q=3
[NIC cqe_tap #345] sc_t=195702270498 ps q=2
[NIC cqe_tap #346] sc_t=195702270498 ps q=3
[NIC cqe_tap #347] sc_t=195702777657 ps q=2
[NIC cqe_tap #348] sc_t=195702777657 ps q=3
[NIC cqe_tap #349] sc_t=195703284816 ps q=2
[NIC cqe_tap #350] sc_t=195703284816 ps q=3
[NIC cqe_tap #351] sc_t=195703791975 ps q=2
[NIC cqe_tap #352] sc_t=195703791975 ps q=3
[NIC cqe_tap #353] sc_t=195704299134 ps q=2
[NIC cqe_tap #354] sc_t=195704299134 ps q=3
[NIC cqe_tap #355] sc_t=195704806293 ps q=2
[NIC cqe_tap #356] sc_t=195704806293 ps q=3
[NIC cqe_tap #357] sc_t=195705313452 ps q=2
[NIC cqe_tap #358] sc_t=195705313452 ps q=3
[NIC cqe_tap #359] sc_t=195705820611 ps q=2
[NIC cqe_tap #360] sc_t=195705820611 ps q=3
[NIC cqe_tap #361] sc_t=195706327770 ps q=2
[NIC cqe_tap #362] sc_t=195706327770 ps q=3
[NIC cqe_tap #363] sc_t=195706834929 ps q=2
[NIC cqe_tap #364] sc_t=195706834929 ps q=3
[NIC cqe_tap #365] sc_t=195707342088 ps q=2
[NIC cqe_tap #366] sc_t=195707342088 ps q=3
[NIC cqe_tap #367] sc_t=195707849247 ps q=2
[NIC cqe_tap #368] sc_t=195707849247 ps q=3
[NIC cqe_tap #369] sc_t=195708356406 ps q=2
[NIC cqe_tap #370] sc_t=195708356406 ps q=3
[NIC cqe_tap #371] sc_t=195708863565 ps q=2
[NIC cqe_tap #372] sc_t=195708863565 ps q=3
[NIC cqe_tap #373] sc_t=195709370724 ps q=2
[NIC cqe_tap #374] sc_t=195709370724 ps q=3
[NIC cqe_tap #375] sc_t=195709877883 ps q=2
[NIC cqe_tap #376] sc_t=195709877883 ps q=3
[NIC cqe_tap #377] sc_t=195710385042 ps q=2
[NIC cqe_tap #378] sc_t=195710385042 ps q=3
[NIC cqe_tap #379] sc_t=195710892201 ps q=2
[NIC cqe_tap #380] sc_t=195710892201 ps q=3
[NIC cqe_tap #381] sc_t=195711399360 ps q=2
[NIC cqe_tap #382] sc_t=195711399360 ps q=3
[NIC cqe_tap #383] sc_t=195717768318 ps q=2
[NIC cqe_tap #384] sc_t=195717768318 ps q=3
[NIC cqe_tap #385] sc_t=195718924161 ps q=2
[NIC cqe_tap #386] sc_t=195718924161 ps q=3
[NIC cqe_tap #387] sc_t=195720080004 ps q=2
[NIC cqe_tap #388] sc_t=195720080004 ps q=3
[NIC cqe_tap #389] sc_t=195721235847 ps q=2
[NIC cqe_tap #390] sc_t=195721235847 ps q=3
[NIC cqe_tap #391] sc_t=195722391690 ps q=2
[NIC cqe_tap #392] sc_t=195722391690 ps q=3
[NIC cqe_tap #393] sc_t=195723547533 ps q=2
[NIC cqe_tap #394] sc_t=195723547533 ps q=3
[NIC cqe_tap #395] sc_t=195724703376 ps q=2
[NIC cqe_tap #396] sc_t=195724703376 ps q=3
[NIC cqe_tap #397] sc_t=195725859219 ps q=2
[NIC cqe_tap #398] sc_t=195725859219 ps q=3
[NIC cqe_tap #399] sc_t=195727015062 ps q=2
[NIC cqe_tap #400] sc_t=195727015062 ps q=3
[NIC cqe_tap #401] sc_t=195728170905 ps q=2
[NIC cqe_tap #402] sc_t=195728170905 ps q=3
[NIC cqe_tap #403] sc_t=195729326748 ps q=2
[NIC cqe_tap #404] sc_t=195729326748 ps q=3
[NIC cqe_tap #405] sc_t=195730482591 ps q=2
[NIC cqe_tap #406] sc_t=195730482591 ps q=3
[NIC cqe_tap #407] sc_t=195731638434 ps q=2
[NIC cqe_tap #408] sc_t=195731638434 ps q=3
[NIC cqe_tap #409] sc_t=195732794277 ps q=2
[NIC cqe_tap #410] sc_t=195732794277 ps q=3
[NIC cqe_tap #411] sc_t=195733950120 ps q=2
[NIC cqe_tap #412] sc_t=195733950120 ps q=3
[NIC cqe_tap #413] sc_t=195735105963 ps q=2
[NIC cqe_tap #414] sc_t=195735105963 ps q=3
[NIC cqe_tap #415] sc_t=195736261806 ps q=2
[NIC cqe_tap #416] sc_t=195736261806 ps q=3
[NIC cqe_tap #417] sc_t=195737417649 ps q=2
[NIC cqe_tap #418] sc_t=195737417649 ps q=3
[NIC cqe_tap #419] sc_t=195738573492 ps q=2
[NIC cqe_tap #420] sc_t=195738573492 ps q=3
[NIC cqe_tap #421] sc_t=195739729335 ps q=2
[NIC cqe_tap #422] sc_t=195739729335 ps q=3
[NIC cqe_tap #423] sc_t=195740885178 ps q=2
[NIC cqe_tap #424] sc_t=195740885178 ps q=3
[NIC cqe_tap #425] sc_t=195742041021 ps q=2
[NIC cqe_tap #426] sc_t=195742041021 ps q=3
[NIC cqe_tap #427] sc_t=195743196864 ps q=2
[NIC cqe_tap #428] sc_t=195743196864 ps q=3
[NIC cqe_tap #429] sc_t=195744352707 ps q=2
[NIC cqe_tap #430] sc_t=195744352707 ps q=3
[NIC cqe_tap #431] sc_t=195745508550 ps q=2
[NIC cqe_tap #432] sc_t=195745508550 ps q=3
[NIC cqe_tap #433] sc_t=195746664393 ps q=2
[NIC cqe_tap #434] sc_t=195746664393 ps q=3
[NIC cqe_tap #435] sc_t=195747820236 ps q=2
[NIC cqe_tap #436] sc_t=195747820236 ps q=3
[NIC cqe_tap #437] sc_t=195748976079 ps q=2
[NIC cqe_tap #438] sc_t=195748976079 ps q=3
[NIC cqe_tap #439] sc_t=195750131922 ps q=2
[NIC cqe_tap #440] sc_t=195750131922 ps q=3
[NIC cqe_tap #441] sc_t=195751287765 ps q=2
[NIC cqe_tap #442] sc_t=195751287765 ps q=3
[NIC cqe_tap #443] sc_t=195752443608 ps q=2
[NIC cqe_tap #444] sc_t=195752443608 ps q=3
[NIC cqe_tap #445] sc_t=195753599451 ps q=2
[NIC cqe_tap #446] sc_t=195753599451 ps q=3
[NIC cqe_tap #447] sc_t=195754755294 ps q=2
[NIC cqe_tap #448] sc_t=195754755294 ps q=3
[NIC cqe_tap #449] sc_t=195755911137 ps q=2
[NIC cqe_tap #450] sc_t=195755911137 ps q=3
[NIC cqe_tap #451] sc_t=195757066980 ps q=2
[NIC cqe_tap #452] sc_t=195757066980 ps q=3
[NIC cqe_tap #453] sc_t=195758222823 ps q=2
[NIC cqe_tap #454] sc_t=195758222823 ps q=3
[NIC cqe_tap #455] sc_t=195759378666 ps q=2
[NIC cqe_tap #456] sc_t=195759378666 ps q=3
[NIC cqe_tap #457] sc_t=195760534509 ps q=2
[NIC cqe_tap #458] sc_t=195760534509 ps q=3
[NIC cqe_tap #459] sc_t=195761690352 ps q=2
[NIC cqe_tap #460] sc_t=195761690352 ps q=3
[NIC cqe_tap #461] sc_t=195762846195 ps q=2
[NIC cqe_tap #462] sc_t=195762846195 ps q=3
[NIC cqe_tap #463] sc_t=195764002038 ps q=2
[NIC cqe_tap #464] sc_t=195764002038 ps q=3
[NIC cqe_tap #465] sc_t=195765157881 ps q=2
[NIC cqe_tap #466] sc_t=195765157881 ps q=3
[NIC cqe_tap #467] sc_t=195766313724 ps q=2
[NIC cqe_tap #468] sc_t=195766313724 ps q=3
[NIC cqe_tap #469] sc_t=195767469567 ps q=2
[NIC cqe_tap #470] sc_t=195767469567 ps q=3
[NIC cqe_tap #471] sc_t=195768625410 ps q=2
[NIC cqe_tap #472] sc_t=195768625410 ps q=3
[NIC cqe_tap #473] sc_t=195769781253 ps q=2
[NIC cqe_tap #474] sc_t=195769781253 ps q=3
[NIC cqe_tap #475] sc_t=195770937096 ps q=2
[NIC cqe_tap #476] sc_t=195770937096 ps q=3
[NIC cqe_tap #477] sc_t=195772092939 ps q=2
[NIC cqe_tap #478] sc_t=195772092939 ps q=3
[NIC cqe_tap #479] sc_t=195773248782 ps q=2
[NIC cqe_tap #480] sc_t=195773248782 ps q=3
[NIC cqe_tap #481] sc_t=195774404625 ps q=2
[NIC cqe_tap #482] sc_t=195774404625 ps q=3
[NIC cqe_tap #483] sc_t=195775560468 ps q=2
[NIC cqe_tap #484] sc_t=195775560468 ps q=3
[NIC cqe_tap #485] sc_t=195776716311 ps q=2
[NIC cqe_tap #486] sc_t=195776716311 ps q=3
[NIC cqe_tap #487] sc_t=195777872154 ps q=2
[NIC cqe_tap #488] sc_t=195777872154 ps q=3
[NIC cqe_tap #489] sc_t=195779027997 ps q=2
[NIC cqe_tap #490] sc_t=195779027997 ps q=3
[NIC cqe_tap #491] sc_t=195780183840 ps q=2
[NIC cqe_tap #492] sc_t=195780183840 ps q=3
[NIC cqe_tap #493] sc_t=195781339683 ps q=2
[NIC cqe_tap #494] sc_t=195781339683 ps q=3
[NIC cqe_tap #495] sc_t=195782495526 ps q=2
[NIC cqe_tap #496] sc_t=195782495526 ps q=3
[NIC cqe_tap #497] sc_t=195783651369 ps q=2
[NIC cqe_tap #498] sc_t=195783651369 ps q=3
[NIC cqe_tap #499] sc_t=195784807212 ps q=2
[NIC cqe_tap #500] sc_t=195784807212 ps q=3
[NIC cqe_tap #501] sc_t=195785963055 ps q=2
[NIC cqe_tap #502] sc_t=195785963055 ps q=3
[NIC cqe_tap #503] sc_t=195787118898 ps q=2
[NIC cqe_tap #504] sc_t=195787118898 ps q=3
[NIC cqe_tap #505] sc_t=195788274741 ps q=2
[NIC cqe_tap #506] sc_t=195788274741 ps q=3
[NIC cqe_tap #507] sc_t=195789430584 ps q=2
[NIC cqe_tap #508] sc_t=195789430584 ps q=3
[NIC cqe_tap #509] sc_t=195790586427 ps q=2
[NIC cqe_tap #510] sc_t=195790586427 ps q=3
[NIC cqe_tap #511] sc_t=195798090582 ps q=2
[NIC cqe_tap #512] sc_t=195798090582 ps q=3
[NIC cqe_tap #513] sc_t=195798139533 ps q=2
[NIC cqe_tap #514] sc_t=195798139533 ps q=3
[NIC cqe_tap #515] sc_t=195798188484 ps q=2
[NIC cqe_tap #516] sc_t=195798188484 ps q=3
[NIC cqe_tap #517] sc_t=195798237435 ps q=2
[NIC cqe_tap #518] sc_t=195798237435 ps q=3
[NIC cqe_tap #519] sc_t=195798286386 ps q=2
[NIC cqe_tap #520] sc_t=195798286386 ps q=3
[NIC cqe_tap #521] sc_t=195798335337 ps q=2
[NIC cqe_tap #522] sc_t=195798335337 ps q=3
[NIC cqe_tap #523] sc_t=195798384288 ps q=2
[NIC cqe_tap #524] sc_t=195798384288 ps q=3
[NIC cqe_tap #525] sc_t=195798433239 ps q=2
[NIC cqe_tap #526] sc_t=195798433239 ps q=3
[NIC cqe_tap #527] sc_t=195798482190 ps q=2
[NIC cqe_tap #528] sc_t=195798482190 ps q=3
[NIC cqe_tap #529] sc_t=195798531141 ps q=2
[NIC cqe_tap #530] sc_t=195798531141 ps q=3
[NIC cqe_tap #531] sc_t=195798580092 ps q=2
[NIC cqe_tap #532] sc_t=195798580092 ps q=3
[NIC cqe_tap #533] sc_t=195798629043 ps q=2
[NIC cqe_tap #534] sc_t=195798629043 ps q=3
[NIC cqe_tap #535] sc_t=195798677994 ps q=2
[NIC cqe_tap #536] sc_t=195798677994 ps q=3
[NIC cqe_tap #537] sc_t=195798726945 ps q=2
[NIC cqe_tap #538] sc_t=195798726945 ps q=3
[NIC cqe_tap #539] sc_t=195798775896 ps q=2
[NIC cqe_tap #540] sc_t=195798775896 ps q=3
[NIC cqe_tap #541] sc_t=195798824847 ps q=2
[NIC cqe_tap #542] sc_t=195798824847 ps q=3
[NIC cqe_tap #543] sc_t=195805908756 ps q=2
[NIC cqe_tap #544] sc_t=195805908756 ps q=3
[NIC cqe_tap #545] sc_t=195806416914 ps q=2
[NIC cqe_tap #546] sc_t=195806416914 ps q=3
[NIC cqe_tap #547] sc_t=195806925072 ps q=2
[NIC cqe_tap #548] sc_t=195806925072 ps q=3
[NIC cqe_tap #549] sc_t=195807433230 ps q=2
[NIC cqe_tap #550] sc_t=195807433230 ps q=3
[NIC cqe_tap #551] sc_t=195807941388 ps q=2
[NIC cqe_tap #552] sc_t=195807941388 ps q=3
[NIC cqe_tap #553] sc_t=195808449546 ps q=2
[NIC cqe_tap #554] sc_t=195808449546 ps q=3
[NIC cqe_tap #555] sc_t=195808957704 ps q=2
[NIC cqe_tap #556] sc_t=195808957704 ps q=3
[NIC cqe_tap #557] sc_t=195809465862 ps q=2
[NIC cqe_tap #558] sc_t=195809465862 ps q=3
[NIC cqe_tap #559] sc_t=195809974020 ps q=2
[NIC cqe_tap #560] sc_t=195809974020 ps q=3
[NIC cqe_tap #561] sc_t=195810482178 ps q=2
[NIC cqe_tap #562] sc_t=195810482178 ps q=3
[NIC cqe_tap #563] sc_t=195810990336 ps q=2
[NIC cqe_tap #564] sc_t=195810990336 ps q=3
[NIC cqe_tap #565] sc_t=195811498494 ps q=2
[NIC cqe_tap #566] sc_t=195811498494 ps q=3
[NIC cqe_tap #567] sc_t=195812006652 ps q=2
[NIC cqe_tap #568] sc_t=195812006652 ps q=3
[NIC cqe_tap #569] sc_t=195812514810 ps q=2
[NIC cqe_tap #570] sc_t=195812514810 ps q=3
[NIC cqe_tap #571] sc_t=195813022968 ps q=2
[NIC cqe_tap #572] sc_t=195813022968 ps q=3
[NIC cqe_tap #573] sc_t=195813531126 ps q=2
[NIC cqe_tap #574] sc_t=195813531126 ps q=3
[NIC cqe_tap #575] sc_t=195820442874 ps q=2
[NIC cqe_tap #576] sc_t=195820442874 ps q=3
[NIC cqe_tap #577] sc_t=195820491825 ps q=2
[NIC cqe_tap #578] sc_t=195820491825 ps q=3
[NIC cqe_tap #579] sc_t=195820540776 ps q=2
[NIC cqe_tap #580] sc_t=195820540776 ps q=3
[NIC cqe_tap #581] sc_t=195820589727 ps q=2
[NIC cqe_tap #582] sc_t=195820589727 ps q=3
[NIC cqe_tap #583] sc_t=195820638678 ps q=2
[NIC cqe_tap #584] sc_t=195820638678 ps q=3
[NIC cqe_tap #585] sc_t=195820687629 ps q=2
[NIC cqe_tap #586] sc_t=195820687629 ps q=3
[NIC cqe_tap #587] sc_t=195820736580 ps q=2
[NIC cqe_tap #588] sc_t=195820736580 ps q=3
[NIC cqe_tap #589] sc_t=195820785531 ps q=2
[NIC cqe_tap #590] sc_t=195820785531 ps q=3
[NIC cqe_tap #591] sc_t=195820834482 ps q=2
[NIC cqe_tap #592] sc_t=195820834482 ps q=3
[NIC cqe_tap #593] sc_t=195820883433 ps q=2
[NIC cqe_tap #594] sc_t=195820883433 ps q=3
[NIC cqe_tap #595] sc_t=195820932384 ps q=2
[NIC cqe_tap #596] sc_t=195820932384 ps q=3
[NIC cqe_tap #597] sc_t=195820981335 ps q=2
[NIC cqe_tap #598] sc_t=195820981335 ps q=3
[NIC cqe_tap #599] sc_t=195821030286 ps q=2
[NIC cqe_tap #600] sc_t=195821030286 ps q=3
[NIC cqe_tap #601] sc_t=195821079237 ps q=2
[NIC cqe_tap #602] sc_t=195821079237 ps q=3
[NIC cqe_tap #603] sc_t=195821128188 ps q=2
[NIC cqe_tap #604] sc_t=195821128188 ps q=3
[NIC cqe_tap #605] sc_t=195821177139 ps q=2
[NIC cqe_tap #606] sc_t=195821177139 ps q=3
[NIC cqe_tap #607] sc_t=195828286356 ps q=2
[NIC cqe_tap #608] sc_t=195828286356 ps q=3
[NIC cqe_tap #609] sc_t=195828794514 ps q=2
[NIC cqe_tap #610] sc_t=195828794514 ps q=3
[NIC cqe_tap #611] sc_t=195829302672 ps q=2
[NIC cqe_tap #612] sc_t=195829302672 ps q=3
[NIC cqe_tap #613] sc_t=195829810830 ps q=2
[NIC cqe_tap #614] sc_t=195829810830 ps q=3
[NIC cqe_tap #615] sc_t=195830318988 ps q=2
[NIC cqe_tap #616] sc_t=195830318988 ps q=3
[NIC cqe_tap #617] sc_t=195830827146 ps q=2
[NIC cqe_tap #618] sc_t=195830827146 ps q=3
[NIC cqe_tap #619] sc_t=195831335304 ps q=2
[NIC cqe_tap #620] sc_t=195831335304 ps q=3
[NIC cqe_tap #621] sc_t=195831843462 ps q=2
[NIC cqe_tap #622] sc_t=195831843462 ps q=3
[NIC cqe_tap #623] sc_t=195832351620 ps q=2
[NIC cqe_tap #624] sc_t=195832351620 ps q=3
[NIC cqe_tap #625] sc_t=195832859778 ps q=2
[NIC cqe_tap #626] sc_t=195832859778 ps q=3
[NIC cqe_tap #627] sc_t=195833367936 ps q=2
[NIC cqe_tap #628] sc_t=195833367936 ps q=3
[NIC cqe_tap #629] sc_t=195833876094 ps q=2
[NIC cqe_tap #630] sc_t=195833876094 ps q=3
[NIC cqe_tap #631] sc_t=195834384252 ps q=2
[NIC cqe_tap #632] sc_t=195834384252 ps q=3
[NIC cqe_tap #633] sc_t=195834892410 ps q=2
[NIC cqe_tap #634] sc_t=195834892410 ps q=3
[NIC cqe_tap #635] sc_t=195835400568 ps q=2
[NIC cqe_tap #636] sc_t=195835400568 ps q=3
[NIC cqe_tap #637] sc_t=195835908726 ps q=2
[NIC cqe_tap #638] sc_t=195835908726 ps q=3
[NIC cqe_tap #639] sc_t=195842843118 ps q=2
[NIC cqe_tap #640] sc_t=195842843118 ps q=3
[NIC cqe_tap #641] sc_t=195842892069 ps q=2
[NIC cqe_tap #642] sc_t=195842892069 ps q=3
[NIC cqe_tap #643] sc_t=195842941020 ps q=2
[NIC cqe_tap #644] sc_t=195842941020 ps q=3
[NIC cqe_tap #645] sc_t=195842989971 ps q=2
[NIC cqe_tap #646] sc_t=195842989971 ps q=3
[NIC cqe_tap #647] sc_t=195843038922 ps q=2
[NIC cqe_tap #648] sc_t=195843038922 ps q=3
[NIC cqe_tap #649] sc_t=195843087873 ps q=2
[NIC cqe_tap #650] sc_t=195843087873 ps q=3
[NIC cqe_tap #651] sc_t=195843136824 ps q=2
[NIC cqe_tap #652] sc_t=195843136824 ps q=3
[NIC cqe_tap #653] sc_t=195843185775 ps q=2
[NIC cqe_tap #654] sc_t=195843185775 ps q=3
[NIC cqe_tap #655] sc_t=195843234726 ps q=2
[NIC cqe_tap #656] sc_t=195843234726 ps q=3
[NIC cqe_tap #657] sc_t=195843283677 ps q=2
[NIC cqe_tap #658] sc_t=195843283677 ps q=3
[NIC cqe_tap #659] sc_t=195843332628 ps q=2
[NIC cqe_tap #660] sc_t=195843332628 ps q=3
[NIC cqe_tap #661] sc_t=195843381579 ps q=2
[NIC cqe_tap #662] sc_t=195843381579 ps q=3
[NIC cqe_tap #663] sc_t=195843430530 ps q=2
[NIC cqe_tap #664] sc_t=195843430530 ps q=3
[NIC cqe_tap #665] sc_t=195843479481 ps q=2
[NIC cqe_tap #666] sc_t=195843479481 ps q=3
[NIC cqe_tap #667] sc_t=195843528432 ps q=2
[NIC cqe_tap #668] sc_t=195843528432 ps q=3
[NIC cqe_tap #669] sc_t=195843577383 ps q=2
[NIC cqe_tap #670] sc_t=195843577383 ps q=3
[NIC cqe_tap #671] sc_t=195850709244 ps q=2
[NIC cqe_tap #672] sc_t=195850709244 ps q=3
[NIC cqe_tap #673] sc_t=195851217402 ps q=2
[NIC cqe_tap #674] sc_t=195851217402 ps q=3
[NIC cqe_tap #675] sc_t=195851725560 ps q=2
[NIC cqe_tap #676] sc_t=195851725560 ps q=3
[NIC cqe_tap #677] sc_t=195852233718 ps q=2
[NIC cqe_tap #678] sc_t=195852233718 ps q=3
[NIC cqe_tap #679] sc_t=195852741876 ps q=2
[NIC cqe_tap #680] sc_t=195852741876 ps q=3
[NIC cqe_tap #681] sc_t=195853250034 ps q=2
[NIC cqe_tap #682] sc_t=195853250034 ps q=3
[NIC cqe_tap #683] sc_t=195853758192 ps q=2
[NIC cqe_tap #684] sc_t=195853758192 ps q=3
[NIC cqe_tap #685] sc_t=195854266350 ps q=2
[NIC cqe_tap #686] sc_t=195854266350 ps q=3
[NIC cqe_tap #687] sc_t=195854774508 ps q=2
[NIC cqe_tap #688] sc_t=195854774508 ps q=3
[NIC cqe_tap #689] sc_t=195855282666 ps q=2
[NIC cqe_tap #690] sc_t=195855282666 ps q=3
[NIC cqe_tap #691] sc_t=195855790824 ps q=2
[NIC cqe_tap #692] sc_t=195855790824 ps q=3
[NIC cqe_tap #693] sc_t=195856298982 ps q=2
[NIC cqe_tap #694] sc_t=195856298982 ps q=3
[NIC cqe_tap #695] sc_t=195856807140 ps q=2
[NIC cqe_tap #696] sc_t=195856807140 ps q=3
[NIC cqe_tap #697] sc_t=195857315298 ps q=2
[NIC cqe_tap #698] sc_t=195857315298 ps q=3
[NIC cqe_tap #699] sc_t=195857823456 ps q=2
[NIC cqe_tap #700] sc_t=195857823456 ps q=3
[NIC cqe_tap #701] sc_t=195858331614 ps q=2
[NIC cqe_tap #702] sc_t=195858331614 ps q=3
[NIC cqe_tap #703] sc_t=195865290315 ps q=2
[NIC cqe_tap #704] sc_t=195865290315 ps q=3
[NIC cqe_tap #705] sc_t=195865339266 ps q=2
[NIC cqe_tap #706] sc_t=195865339266 ps q=3
[NIC cqe_tap #707] sc_t=195865388217 ps q=2
[NIC cqe_tap #708] sc_t=195865388217 ps q=3
[NIC cqe_tap #709] sc_t=195865437168 ps q=2
[NIC cqe_tap #710] sc_t=195865437168 ps q=3
[NIC cqe_tap #711] sc_t=195865486119 ps q=2
[NIC cqe_tap #712] sc_t=195865486119 ps q=3
[NIC cqe_tap #713] sc_t=195865535070 ps q=2
[NIC cqe_tap #714] sc_t=195865535070 ps q=3
[NIC cqe_tap #715] sc_t=195865584021 ps q=2
[NIC cqe_tap #716] sc_t=195865584021 ps q=3
[NIC cqe_tap #717] sc_t=195865632972 ps q=2
[NIC cqe_tap #718] sc_t=195865632972 ps q=3
[NIC cqe_tap #719] sc_t=195865681923 ps q=2
[NIC cqe_tap #720] sc_t=195865681923 ps q=3
[NIC cqe_tap #721] sc_t=195865730874 ps q=2
[NIC cqe_tap #722] sc_t=195865730874 ps q=3
[NIC cqe_tap #723] sc_t=195865779825 ps q=2
[NIC cqe_tap #724] sc_t=195865779825 ps q=3
[NIC cqe_tap #725] sc_t=195865828776 ps q=2
[NIC cqe_tap #726] sc_t=195865828776 ps q=3
[NIC cqe_tap #727] sc_t=195865877727 ps q=2
[NIC cqe_tap #728] sc_t=195865877727 ps q=3
[NIC cqe_tap #729] sc_t=195865926678 ps q=2
[NIC cqe_tap #730] sc_t=195865926678 ps q=3
[NIC cqe_tap #731] sc_t=195865975629 ps q=2
[NIC cqe_tap #732] sc_t=195865975629 ps q=3
[NIC cqe_tap #733] sc_t=195866024580 ps q=2
[NIC cqe_tap #734] sc_t=195866024580 ps q=3
[NIC cqe_tap #735] sc_t=195873316947 ps q=2
[NIC cqe_tap #736] sc_t=195873316947 ps q=3
[NIC cqe_tap #737] sc_t=195873825105 ps q=2
[NIC cqe_tap #738] sc_t=195873825105 ps q=3
[NIC cqe_tap #739] sc_t=195874333263 ps q=2
[NIC cqe_tap #740] sc_t=195874333263 ps q=3
[NIC cqe_tap #741] sc_t=195874841421 ps q=2
[NIC cqe_tap #742] sc_t=195874841421 ps q=3
[NIC cqe_tap #743] sc_t=195875349579 ps q=2
[NIC cqe_tap #744] sc_t=195875349579 ps q=3
[NIC cqe_tap #745] sc_t=195875857737 ps q=2
[NIC cqe_tap #746] sc_t=195875857737 ps q=3
[NIC cqe_tap #747] sc_t=195876365895 ps q=2
[NIC cqe_tap #748] sc_t=195876365895 ps q=3
[NIC cqe_tap #749] sc_t=195876874053 ps q=2
[NIC cqe_tap #750] sc_t=195876874053 ps q=3
[NIC cqe_tap #751] sc_t=195877382211 ps q=2
[NIC cqe_tap #752] sc_t=195877382211 ps q=3
[NIC cqe_tap #753] sc_t=195877890369 ps q=2
[NIC cqe_tap #754] sc_t=195877890369 ps q=3
[NIC cqe_tap #755] sc_t=195878398527 ps q=2
[NIC cqe_tap #756] sc_t=195878398527 ps q=3
[NIC cqe_tap #757] sc_t=195878906685 ps q=2
[NIC cqe_tap #758] sc_t=195878906685 ps q=3
[NIC cqe_tap #759] sc_t=195879414843 ps q=2
[NIC cqe_tap #760] sc_t=195879414843 ps q=3
[NIC cqe_tap #761] sc_t=195879923001 ps q=2
[NIC cqe_tap #762] sc_t=195879923001 ps q=3
[NIC cqe_tap #763] sc_t=195880431159 ps q=2
[NIC cqe_tap #764] sc_t=195880431159 ps q=3
[NIC cqe_tap #765] sc_t=195880939317 ps q=2
[NIC cqe_tap #766] sc_t=195880939317 ps q=3
[NIC cqe_tap #767] sc_t=195887922993 ps q=2
[NIC cqe_tap #768] sc_t=195887922993 ps q=3
[NIC cqe_tap #769] sc_t=195887971944 ps q=2
[NIC cqe_tap #770] sc_t=195887971944 ps q=3
[NIC cqe_tap #771] sc_t=195888020895 ps q=2
[NIC cqe_tap #772] sc_t=195888020895 ps q=3
[NIC cqe_tap #773] sc_t=195888069846 ps q=2
[NIC cqe_tap #774] sc_t=195888069846 ps q=3
[NIC cqe_tap #775] sc_t=195888118797 ps q=2
[NIC cqe_tap #776] sc_t=195888118797 ps q=3
[NIC cqe_tap #777] sc_t=195888167748 ps q=2
[NIC cqe_tap #778] sc_t=195888167748 ps q=3
[NIC cqe_tap #779] sc_t=195888216699 ps q=2
[NIC cqe_tap #780] sc_t=195888216699 ps q=3
[NIC cqe_tap #781] sc_t=195888265650 ps q=2
[NIC cqe_tap #782] sc_t=195888265650 ps q=3
[NIC cqe_tap #783] sc_t=195888314601 ps q=2
[NIC cqe_tap #784] sc_t=195888314601 ps q=3
[NIC cqe_tap #785] sc_t=195888363552 ps q=2
[NIC cqe_tap #786] sc_t=195888363552 ps q=3
[NIC cqe_tap #787] sc_t=195888412503 ps q=2
[NIC cqe_tap #788] sc_t=195888412503 ps q=3
[NIC cqe_tap #789] sc_t=195888461454 ps q=2
[NIC cqe_tap #790] sc_t=195888461454 ps q=3
[NIC cqe_tap #791] sc_t=195888510405 ps q=2
[NIC cqe_tap #792] sc_t=195888510405 ps q=3
[NIC cqe_tap #793] sc_t=195888559356 ps q=2
[NIC cqe_tap #794] sc_t=195888559356 ps q=3
[NIC cqe_tap #795] sc_t=195888608307 ps q=2
[NIC cqe_tap #796] sc_t=195888608307 ps q=3
[NIC cqe_tap #797] sc_t=195888657258 ps q=2
[NIC cqe_tap #798] sc_t=195888657258 ps q=3
[NIC cqe_tap #799] sc_t=195895810431 ps q=2
[NIC cqe_tap #800] sc_t=195895810431 ps q=3
[NIC cqe_tap #801] sc_t=195896318589 ps q=2
[NIC cqe_tap #802] sc_t=195896318589 ps q=3
[NIC cqe_tap #803] sc_t=195896826747 ps q=2
[NIC cqe_tap #804] sc_t=195896826747 ps q=3
[NIC cqe_tap #805] sc_t=195897334905 ps q=2
[NIC cqe_tap #806] sc_t=195897334905 ps q=3
[NIC cqe_tap #807] sc_t=195897843063 ps q=2
[NIC cqe_tap #808] sc_t=195897843063 ps q=3
[NIC cqe_tap #809] sc_t=195898351221 ps q=2
[NIC cqe_tap #810] sc_t=195898351221 ps q=3
[NIC cqe_tap #811] sc_t=195898859379 ps q=2
[NIC cqe_tap #812] sc_t=195898859379 ps q=3
[NIC cqe_tap #813] sc_t=195899367537 ps q=2
[NIC cqe_tap #814] sc_t=195899367537 ps q=3
[NIC cqe_tap #815] sc_t=195899875695 ps q=2
[NIC cqe_tap #816] sc_t=195899875695 ps q=3
[NIC cqe_tap #817] sc_t=195900383853 ps q=2
[NIC cqe_tap #818] sc_t=195900383853 ps q=3
[NIC cqe_tap #819] sc_t=195900892011 ps q=2
[NIC cqe_tap #820] sc_t=195900892011 ps q=3
[NIC cqe_tap #821] sc_t=195901400169 ps q=2
[NIC cqe_tap #822] sc_t=195901400169 ps q=3
[NIC cqe_tap #823] sc_t=195901908327 ps q=2
[NIC cqe_tap #824] sc_t=195901908327 ps q=3
[NIC cqe_tap #825] sc_t=195902416485 ps q=2
[NIC cqe_tap #826] sc_t=195902416485 ps q=3
[NIC cqe_tap #827] sc_t=195902924643 ps q=2
[NIC cqe_tap #828] sc_t=195902924643 ps q=3
[NIC cqe_tap #829] sc_t=195903432801 ps q=2
[NIC cqe_tap #830] sc_t=195903432801 ps q=3
[NIC cqe_tap #831] sc_t=195940373157 ps q=2
[NIC cqe_tap #832] sc_t=195940373157 ps q=3
[NIC cqe_tap #833] sc_t=195940416114 ps q=2
[NIC cqe_tap #834] sc_t=195940416114 ps q=3
[NIC cqe_tap #835] sc_t=195940459071 ps q=2
[NIC cqe_tap #836] sc_t=195940459071 ps q=3
[NIC cqe_tap #837] sc_t=195940502028 ps q=2
[NIC cqe_tap #838] sc_t=195940502028 ps q=3
[NIC cqe_tap #839] sc_t=195940544985 ps q=2
[NIC cqe_tap #840] sc_t=195940544985 ps q=3
[NIC cqe_tap #841] sc_t=195940587942 ps q=2
[NIC cqe_tap #842] sc_t=195940587942 ps q=3
[NIC cqe_tap #843] sc_t=195940630899 ps q=2
[NIC cqe_tap #844] sc_t=195940630899 ps q=3
[NIC cqe_tap #845] sc_t=195940673856 ps q=2
[NIC cqe_tap #846] sc_t=195940673856 ps q=3
[NIC cqe_tap #847] sc_t=195940716813 ps q=2
[NIC cqe_tap #848] sc_t=195940716813 ps q=3
[NIC cqe_tap #849] sc_t=195940759770 ps q=2
[NIC cqe_tap #850] sc_t=195940759770 ps q=3
[NIC cqe_tap #851] sc_t=195940802727 ps q=2
[NIC cqe_tap #852] sc_t=195940802727 ps q=3
[NIC cqe_tap #853] sc_t=195940845684 ps q=2
[NIC cqe_tap #854] sc_t=195940845684 ps q=3
[NIC cqe_tap #855] sc_t=195940888641 ps q=2
[NIC cqe_tap #856] sc_t=195940888641 ps q=3
[NIC cqe_tap #857] sc_t=195940931598 ps q=2
[NIC cqe_tap #858] sc_t=195940931598 ps q=3
[NIC cqe_tap #859] sc_t=195940974555 ps q=2
[NIC cqe_tap #860] sc_t=195940974555 ps q=3
[NIC cqe_tap #861] sc_t=195941017512 ps q=2
[NIC cqe_tap #862] sc_t=195941017512 ps q=3
[NIC cqe_tap #863] sc_t=195941060469 ps q=2
[NIC cqe_tap #864] sc_t=195941060469 ps q=3
[NIC cqe_tap #865] sc_t=195941103426 ps q=2
[NIC cqe_tap #866] sc_t=195941103426 ps q=3
[NIC cqe_tap #867] sc_t=195941146383 ps q=2
[NIC cqe_tap #868] sc_t=195941146383 ps q=3
[NIC cqe_tap #869] sc_t=195941189340 ps q=2
[NIC cqe_tap #870] sc_t=195941189340 ps q=3
[NIC cqe_tap #871] sc_t=195941232297 ps q=2
[NIC cqe_tap #872] sc_t=195941232297 ps q=3
[NIC cqe_tap #873] sc_t=195941275254 ps q=2
[NIC cqe_tap #874] sc_t=195941275254 ps q=3
[NIC cqe_tap #875] sc_t=195941318211 ps q=2
[NIC cqe_tap #876] sc_t=195941318211 ps q=3
[NIC cqe_tap #877] sc_t=195941361168 ps q=2
[NIC cqe_tap #878] sc_t=195941361168 ps q=3
[NIC cqe_tap #879] sc_t=195941404125 ps q=2
[NIC cqe_tap #880] sc_t=195941404125 ps q=3
[NIC cqe_tap #881] sc_t=195941447082 ps q=2
[NIC cqe_tap #882] sc_t=195941447082 ps q=3
[NIC cqe_tap #883] sc_t=195941490039 ps q=2
[NIC cqe_tap #884] sc_t=195941490039 ps q=3
[NIC cqe_tap #885] sc_t=195941532996 ps q=2
[NIC cqe_tap #886] sc_t=195941532996 ps q=3
[NIC cqe_tap #887] sc_t=195941575953 ps q=2
[NIC cqe_tap #888] sc_t=195941575953 ps q=3
[NIC cqe_tap #889] sc_t=195941618910 ps q=2
[NIC cqe_tap #890] sc_t=195941618910 ps q=3
[NIC cqe_tap #891] sc_t=195941661867 ps q=2
[NIC cqe_tap #892] sc_t=195941661867 ps q=3
[NIC cqe_tap #893] sc_t=195941704824 ps q=2
[NIC cqe_tap #894] sc_t=195941704824 ps q=3
[NIC cqe_tap #895] sc_t=195948771750 ps q=2
[NIC cqe_tap #896] sc_t=195948771750 ps q=3
[NIC cqe_tap #897] sc_t=195949271916 ps q=2
[NIC cqe_tap #898] sc_t=195949271916 ps q=3
[NIC cqe_tap #899] sc_t=195949772082 ps q=2
[NIC cqe_tap #900] sc_t=195949772082 ps q=3
[NIC cqe_tap #901] sc_t=195950272248 ps q=2
[NIC cqe_tap #902] sc_t=195950272248 ps q=3
[NIC cqe_tap #903] sc_t=195950772414 ps q=2
[NIC cqe_tap #904] sc_t=195950772414 ps q=3
[NIC cqe_tap #905] sc_t=195951272580 ps q=2
[NIC cqe_tap #906] sc_t=195951272580 ps q=3
[NIC cqe_tap #907] sc_t=195951772746 ps q=2
[NIC cqe_tap #908] sc_t=195951772746 ps q=3
[NIC cqe_tap #909] sc_t=195952272912 ps q=2
[NIC cqe_tap #910] sc_t=195952272912 ps q=3
[NIC cqe_tap #911] sc_t=195952773078 ps q=2
[NIC cqe_tap #912] sc_t=195952773078 ps q=3
[NIC cqe_tap #913] sc_t=195953273244 ps q=2
[NIC cqe_tap #914] sc_t=195953273244 ps q=3
[NIC cqe_tap #915] sc_t=195953773410 ps q=2
[NIC cqe_tap #916] sc_t=195953773410 ps q=3
[NIC cqe_tap #917] sc_t=195954273576 ps q=2
[NIC cqe_tap #918] sc_t=195954273576 ps q=3
[NIC cqe_tap #919] sc_t=195954773742 ps q=2
[NIC cqe_tap #920] sc_t=195954773742 ps q=3
[NIC cqe_tap #921] sc_t=195955273908 ps q=2
[NIC cqe_tap #922] sc_t=195955273908 ps q=3
[NIC cqe_tap #923] sc_t=195955774074 ps q=2
[NIC cqe_tap #924] sc_t=195955774074 ps q=3
[NIC cqe_tap #925] sc_t=195956274240 ps q=2
[NIC cqe_tap #926] sc_t=195956274240 ps q=3
[NIC cqe_tap #927] sc_t=195956774406 ps q=2
[NIC cqe_tap #928] sc_t=195956774406 ps q=3
[NIC cqe_tap #929] sc_t=195957274572 ps q=2
[NIC cqe_tap #930] sc_t=195957274572 ps q=3
[NIC cqe_tap #931] sc_t=195957774738 ps q=2
[NIC cqe_tap #932] sc_t=195957774738 ps q=3
[NIC cqe_tap #933] sc_t=195958274904 ps q=2
[NIC cqe_tap #934] sc_t=195958274904 ps q=3
[NIC cqe_tap #935] sc_t=195958775070 ps q=2
[NIC cqe_tap #936] sc_t=195958775070 ps q=3
[NIC cqe_tap #937] sc_t=195959275236 ps q=2
[NIC cqe_tap #938] sc_t=195959275236 ps q=3
[NIC cqe_tap #939] sc_t=195959775402 ps q=2
[NIC cqe_tap #940] sc_t=195959775402 ps q=3
[NIC cqe_tap #941] sc_t=195960275568 ps q=2
[NIC cqe_tap #942] sc_t=195960275568 ps q=3
[NIC cqe_tap #943] sc_t=195960775734 ps q=2
[NIC cqe_tap #944] sc_t=195960775734 ps q=3
[NIC cqe_tap #945] sc_t=195961275900 ps q=2
[NIC cqe_tap #946] sc_t=195961275900 ps q=3
[NIC cqe_tap #947] sc_t=195961776066 ps q=2
[NIC cqe_tap #948] sc_t=195961776066 ps q=3
[NIC cqe_tap #949] sc_t=195962276232 ps q=2
[NIC cqe_tap #950] sc_t=195962276232 ps q=3
[NIC cqe_tap #951] sc_t=195962776398 ps q=2
[NIC cqe_tap #952] sc_t=195962776398 ps q=3
[NIC cqe_tap #953] sc_t=195963276564 ps q=2
[NIC cqe_tap #954] sc_t=195963276564 ps q=3
[NIC cqe_tap #955] sc_t=195963776730 ps q=2
[NIC cqe_tap #956] sc_t=195963776730 ps q=3
[NIC cqe_tap #957] sc_t=195964276896 ps q=2
[NIC cqe_tap #958] sc_t=195964276896 ps q=3
[NIC cqe_tap #959] sc_t=195971120379 ps q=2
[NIC cqe_tap #960] sc_t=195971120379 ps q=3
[NIC cqe_tap #961] sc_t=195971163336 ps q=2
[NIC cqe_tap #962] sc_t=195971163336 ps q=3
[NIC cqe_tap #963] sc_t=195971206293 ps q=2
[NIC cqe_tap #964] sc_t=195971206293 ps q=3
[NIC cqe_tap #965] sc_t=195971249250 ps q=2
[NIC cqe_tap #966] sc_t=195971249250 ps q=3
[NIC cqe_tap #967] sc_t=195971292207 ps q=2
[NIC cqe_tap #968] sc_t=195971292207 ps q=3
[NIC cqe_tap #969] sc_t=195971335164 ps q=2
[NIC cqe_tap #970] sc_t=195971335164 ps q=3
[NIC cqe_tap #971] sc_t=195971378121 ps q=2
[NIC cqe_tap #972] sc_t=195971378121 ps q=3
[NIC cqe_tap #973] sc_t=195971421078 ps q=2
[NIC cqe_tap #974] sc_t=195971421078 ps q=3
[NIC cqe_tap #975] sc_t=195971464035 ps q=2
[NIC cqe_tap #976] sc_t=195971464035 ps q=3
[NIC cqe_tap #977] sc_t=195971506992 ps q=2
[NIC cqe_tap #978] sc_t=195971506992 ps q=3
[NIC cqe_tap #979] sc_t=195971549949 ps q=2
[NIC cqe_tap #980] sc_t=195971549949 ps q=3
[NIC cqe_tap #981] sc_t=195971592906 ps q=2
[NIC cqe_tap #982] sc_t=195971592906 ps q=3
[NIC cqe_tap #983] sc_t=195971635863 ps q=2
[NIC cqe_tap #984] sc_t=195971635863 ps q=3
[NIC cqe_tap #985] sc_t=195971678820 ps q=2
[NIC cqe_tap #986] sc_t=195971678820 ps q=3
[NIC cqe_tap #987] sc_t=195971721777 ps q=2
[NIC cqe_tap #988] sc_t=195971721777 ps q=3
[NIC cqe_tap #989] sc_t=195971764734 ps q=2
[NIC cqe_tap #990] sc_t=195971764734 ps q=3
[NIC cqe_tap #991] sc_t=195971807691 ps q=2
[NIC cqe_tap #992] sc_t=195971807691 ps q=3
[NIC cqe_tap #993] sc_t=195971850648 ps q=2
[NIC cqe_tap #994] sc_t=195971850648 ps q=3
[NIC cqe_tap #995] sc_t=195971893605 ps q=2
[NIC cqe_tap #996] sc_t=195971893605 ps q=3
[NIC cqe_tap #997] sc_t=195971936562 ps q=2
[NIC cqe_tap #998] sc_t=195971936562 ps q=3
[NIC cqe_tap #999] sc_t=195971979519 ps q=2
[NIC cqe_tap #1000] sc_t=195971979519 ps q=3
[NIC cqe_tap #1001] sc_t=195972022476 ps q=2
[NIC cqe_tap #1002] sc_t=195972022476 ps q=3
[NIC cqe_tap #1003] sc_t=195972065433 ps q=2
[NIC cqe_tap #1004] sc_t=195972065433 ps q=3
[NIC cqe_tap #1005] sc_t=195972108390 ps q=2
[NIC cqe_tap #1006] sc_t=195972108390 ps q=3
[NIC cqe_tap #1007] sc_t=195972151347 ps q=2
[NIC cqe_tap #1008] sc_t=195972151347 ps q=3
[NIC cqe_tap #1009] sc_t=195972194304 ps q=2
[NIC cqe_tap #1010] sc_t=195972194304 ps q=3
[NIC cqe_tap #1011] sc_t=195972237261 ps q=2
[NIC cqe_tap #1012] sc_t=195972237261 ps q=3
[NIC cqe_tap #1013] sc_t=195972280218 ps q=2
[NIC cqe_tap #1014] sc_t=195972280218 ps q=3
[NIC cqe_tap #1015] sc_t=195972323175 ps q=2
[NIC cqe_tap #1016] sc_t=195972323175 ps q=3
[NIC cqe_tap #1017] sc_t=195972366132 ps q=2
[NIC cqe_tap #1018] sc_t=195972366132 ps q=3
[NIC cqe_tap #1019] sc_t=195972409089 ps q=2
[NIC cqe_tap #1020] sc_t=195972409089 ps q=3
[NIC cqe_tap #1021] sc_t=195972452046 ps q=2
[NIC cqe_tap #1022] sc_t=195972452046 ps q=3
[NIC cqe_tap #1023] sc_t=195972495003 ps q=2
[NIC cqe_tap #1024] sc_t=195972495003 ps q=3
[NIC cqe_tap #1025] sc_t=195972537960 ps q=2
[NIC cqe_tap #1026] sc_t=195972537960 ps q=3
[NIC cqe_tap #1027] sc_t=195972580917 ps q=2
[NIC cqe_tap #1028] sc_t=195972580917 ps q=3
[NIC cqe_tap #1029] sc_t=195972623874 ps q=2
[NIC cqe_tap #1030] sc_t=195972623874 ps q=3
[NIC cqe_tap #1031] sc_t=195972666831 ps q=2
[NIC cqe_tap #1032] sc_t=195972666831 ps q=3
[NIC cqe_tap #1033] sc_t=195972709788 ps q=2
[NIC cqe_tap #1034] sc_t=195972709788 ps q=3
[NIC cqe_tap #1035] sc_t=195972752745 ps q=2
[NIC cqe_tap #1036] sc_t=195972752745 ps q=3
[NIC cqe_tap #1037] sc_t=195972795702 ps q=2
[NIC cqe_tap #1038] sc_t=195972795702 ps q=3
[NIC cqe_tap #1039] sc_t=195972838659 ps q=2
[NIC cqe_tap #1040] sc_t=195972838659 ps q=3
[NIC cqe_tap #1041] sc_t=195972881616 ps q=2
[NIC cqe_tap #1042] sc_t=195972881616 ps q=3
[NIC cqe_tap #1043] sc_t=195972924573 ps q=2
[NIC cqe_tap #1044] sc_t=195972924573 ps q=3
[NIC cqe_tap #1045] sc_t=195972967530 ps q=2
[NIC cqe_tap #1046] sc_t=195972967530 ps q=3
[NIC cqe_tap #1047] sc_t=195973010487 ps q=2
[NIC cqe_tap #1048] sc_t=195973010487 ps q=3
[NIC cqe_tap #1049] sc_t=195973053444 ps q=2
[NIC cqe_tap #1050] sc_t=195973053444 ps q=3
[NIC cqe_tap #1051] sc_t=195973096401 ps q=2
[NIC cqe_tap #1052] sc_t=195973096401 ps q=3
[NIC cqe_tap #1053] sc_t=195973139358 ps q=2
[NIC cqe_tap #1054] sc_t=195973139358 ps q=3
[NIC cqe_tap #1055] sc_t=195973182315 ps q=2
[NIC cqe_tap #1056] sc_t=195973182315 ps q=3
[NIC cqe_tap #1057] sc_t=195973225272 ps q=2
[NIC cqe_tap #1058] sc_t=195973225272 ps q=3
[NIC cqe_tap #1059] sc_t=195973268229 ps q=2
[NIC cqe_tap #1060] sc_t=195973268229 ps q=3
[NIC cqe_tap #1061] sc_t=195973311186 ps q=2
[NIC cqe_tap #1062] sc_t=195973311186 ps q=3
[NIC cqe_tap #1063] sc_t=195973354143 ps q=2
[NIC cqe_tap #1064] sc_t=195973354143 ps q=3
[NIC cqe_tap #1065] sc_t=195973397100 ps q=2
[NIC cqe_tap #1066] sc_t=195973397100 ps q=3
[NIC cqe_tap #1067] sc_t=195973440057 ps q=2
[NIC cqe_tap #1068] sc_t=195973440057 ps q=3
[NIC cqe_tap #1069] sc_t=195973483014 ps q=2
[NIC cqe_tap #1070] sc_t=195973483014 ps q=3
[NIC cqe_tap #1071] sc_t=195973525971 ps q=2
[NIC cqe_tap #1072] sc_t=195973525971 ps q=3
[NIC cqe_tap #1073] sc_t=195973568928 ps q=2
[NIC cqe_tap #1074] sc_t=195973568928 ps q=3
[NIC cqe_tap #1075] sc_t=195973611885 ps q=2
[NIC cqe_tap #1076] sc_t=195973611885 ps q=3
[NIC cqe_tap #1077] sc_t=195973654842 ps q=2
[NIC cqe_tap #1078] sc_t=195973654842 ps q=3
[NIC cqe_tap #1079] sc_t=195973697799 ps q=2
[NIC cqe_tap #1080] sc_t=195973697799 ps q=3
[NIC cqe_tap #1081] sc_t=195973740756 ps q=2
[NIC cqe_tap #1082] sc_t=195973740756 ps q=3
[NIC cqe_tap #1083] sc_t=195973783713 ps q=2
[NIC cqe_tap #1084] sc_t=195973783713 ps q=3
[NIC cqe_tap #1085] sc_t=195973826670 ps q=2
[NIC cqe_tap #1086] sc_t=195973826670 ps q=3
[NIC cqe_tap #1087] sc_t=195973869627 ps q=2
[NIC cqe_tap #1088] sc_t=195973869627 ps q=3
[NIC cqe_tap #1089] sc_t=195973912584 ps q=2
[NIC cqe_tap #1090] sc_t=195973912584 ps q=3
[NIC cqe_tap #1091] sc_t=195973955541 ps q=2
[NIC cqe_tap #1092] sc_t=195973955541 ps q=3
[NIC cqe_tap #1093] sc_t=195973998498 ps q=2
[NIC cqe_tap #1094] sc_t=195973998498 ps q=3
[NIC cqe_tap #1095] sc_t=195974041455 ps q=2
[NIC cqe_tap #1096] sc_t=195974041455 ps q=3
[NIC cqe_tap #1097] sc_t=195974084412 ps q=2
[NIC cqe_tap #1098] sc_t=195974084412 ps q=3
[NIC cqe_tap #1099] sc_t=195974127369 ps q=2
[NIC cqe_tap #1100] sc_t=195974127369 ps q=3
[NIC cqe_tap #1101] sc_t=195974170326 ps q=2
[NIC cqe_tap #1102] sc_t=195974170326 ps q=3
[NIC cqe_tap #1103] sc_t=195974213283 ps q=2
[NIC cqe_tap #1104] sc_t=195974213283 ps q=3
[NIC cqe_tap #1105] sc_t=195974256240 ps q=2
[NIC cqe_tap #1106] sc_t=195974256240 ps q=3
[NIC cqe_tap #1107] sc_t=195974299197 ps q=2
[NIC cqe_tap #1108] sc_t=195974299197 ps q=3
[NIC cqe_tap #1109] sc_t=195974342154 ps q=2
[NIC cqe_tap #1110] sc_t=195974342154 ps q=3
[NIC cqe_tap #1111] sc_t=195974385111 ps q=2
[NIC cqe_tap #1112] sc_t=195974385111 ps q=3
[NIC cqe_tap #1113] sc_t=195974428068 ps q=2
[NIC cqe_tap #1114] sc_t=195974428068 ps q=3
[NIC cqe_tap #1115] sc_t=195974471025 ps q=2
[NIC cqe_tap #1116] sc_t=195974471025 ps q=3
[NIC cqe_tap #1117] sc_t=195974513982 ps q=2
[NIC cqe_tap #1118] sc_t=195974513982 ps q=3
[NIC cqe_tap #1119] sc_t=195974556939 ps q=2
[NIC cqe_tap #1120] sc_t=195974556939 ps q=3
[NIC cqe_tap #1121] sc_t=195974599896 ps q=2
[NIC cqe_tap #1122] sc_t=195974599896 ps q=3
[NIC cqe_tap #1123] sc_t=195974642853 ps q=2
[NIC cqe_tap #1124] sc_t=195974642853 ps q=3
[NIC cqe_tap #1125] sc_t=195974685810 ps q=2
[NIC cqe_tap #1126] sc_t=195974685810 ps q=3
[NIC cqe_tap #1127] sc_t=195974728767 ps q=2
[NIC cqe_tap #1128] sc_t=195974728767 ps q=3
[NIC cqe_tap #1129] sc_t=195974771724 ps q=2
[NIC cqe_tap #1130] sc_t=195974771724 ps q=3
[NIC cqe_tap #1131] sc_t=195974814681 ps q=2
[NIC cqe_tap #1132] sc_t=195974814681 ps q=3
[NIC cqe_tap #1133] sc_t=195974857638 ps q=2
[NIC cqe_tap #1134] sc_t=195974857638 ps q=3
[NIC cqe_tap #1135] sc_t=195974900595 ps q=2
[NIC cqe_tap #1136] sc_t=195974900595 ps q=3
[NIC cqe_tap #1137] sc_t=195974943552 ps q=2
[NIC cqe_tap #1138] sc_t=195974943552 ps q=3
[NIC cqe_tap #1139] sc_t=195974986509 ps q=2
[NIC cqe_tap #1140] sc_t=195974986509 ps q=3
[NIC cqe_tap #1141] sc_t=195975029466 ps q=2
[NIC cqe_tap #1142] sc_t=195975029466 ps q=3
[NIC cqe_tap #1143] sc_t=195975072423 ps q=2
[NIC cqe_tap #1144] sc_t=195975072423 ps q=3
[NIC cqe_tap #1145] sc_t=195975115380 ps q=2
[NIC cqe_tap #1146] sc_t=195975115380 ps q=3
[NIC cqe_tap #1147] sc_t=195975158337 ps q=2
[NIC cqe_tap #1148] sc_t=195975158337 ps q=3
[NIC cqe_tap #1149] sc_t=195975201294 ps q=2
[NIC cqe_tap #1150] sc_t=195975201294 ps q=3
[NIC cqe_tap #1151] sc_t=195975244251 ps q=2
[NIC cqe_tap #1152] sc_t=195975244251 ps q=3
[NIC cqe_tap #1153] sc_t=195975287208 ps q=2
[NIC cqe_tap #1154] sc_t=195975287208 ps q=3
[NIC cqe_tap #1155] sc_t=195975330165 ps q=2
[NIC cqe_tap #1156] sc_t=195975330165 ps q=3
[NIC cqe_tap #1157] sc_t=195975373122 ps q=2
[NIC cqe_tap #1158] sc_t=195975373122 ps q=3
[NIC cqe_tap #1159] sc_t=195975416079 ps q=2
[NIC cqe_tap #1160] sc_t=195975416079 ps q=3
[NIC cqe_tap #1161] sc_t=195975459036 ps q=2
[NIC cqe_tap #1162] sc_t=195975459036 ps q=3
[NIC cqe_tap #1163] sc_t=195975501993 ps q=2
[NIC cqe_tap #1164] sc_t=195975501993 ps q=3
[NIC cqe_tap #1165] sc_t=195975544950 ps q=2
[NIC cqe_tap #1166] sc_t=195975544950 ps q=3
[NIC cqe_tap #1167] sc_t=195975587907 ps q=2
[NIC cqe_tap #1168] sc_t=195975587907 ps q=3
[NIC cqe_tap #1169] sc_t=195975630864 ps q=2
[NIC cqe_tap #1170] sc_t=195975630864 ps q=3
[NIC cqe_tap #1171] sc_t=195975673821 ps q=2
[NIC cqe_tap #1172] sc_t=195975673821 ps q=3
[NIC cqe_tap #1173] sc_t=195975716778 ps q=2
[NIC cqe_tap #1174] sc_t=195975716778 ps q=3
[NIC cqe_tap #1175] sc_t=195975759735 ps q=2
[NIC cqe_tap #1176] sc_t=195975759735 ps q=3
[NIC cqe_tap #1177] sc_t=195975802692 ps q=2
[NIC cqe_tap #1178] sc_t=195975802692 ps q=3
[NIC cqe_tap #1179] sc_t=195975845649 ps q=2
[NIC cqe_tap #1180] sc_t=195975845649 ps q=3
[NIC cqe_tap #1181] sc_t=195975888606 ps q=2
[NIC cqe_tap #1182] sc_t=195975888606 ps q=3
[NIC cqe_tap #1183] sc_t=195975931563 ps q=2
[NIC cqe_tap #1184] sc_t=195975931563 ps q=3
[NIC cqe_tap #1185] sc_t=195975974520 ps q=2
[NIC cqe_tap #1186] sc_t=195975974520 ps q=3
[NIC cqe_tap #1187] sc_t=195976017477 ps q=2
[NIC cqe_tap #1188] sc_t=195976017477 ps q=3
[NIC cqe_tap #1189] sc_t=195976060434 ps q=2
[NIC cqe_tap #1190] sc_t=195976060434 ps q=3
[NIC cqe_tap #1191] sc_t=195976103391 ps q=2
[NIC cqe_tap #1192] sc_t=195976103391 ps q=3
[NIC cqe_tap #1193] sc_t=195976146348 ps q=2
[NIC cqe_tap #1194] sc_t=195976146348 ps q=3
[NIC cqe_tap #1195] sc_t=195976189305 ps q=2
[NIC cqe_tap #1196] sc_t=195976189305 ps q=3
[NIC cqe_tap #1197] sc_t=195976232262 ps q=2
[NIC cqe_tap #1198] sc_t=195976232262 ps q=3
[NIC cqe_tap #1199] sc_t=195976275219 ps q=2
[NIC cqe_tap #1200] sc_t=195976275219 ps q=3
[NIC cqe_tap #1201] sc_t=195976318176 ps q=2
[NIC cqe_tap #1202] sc_t=195976318176 ps q=3
[NIC cqe_tap #1203] sc_t=195976361133 ps q=2
[NIC cqe_tap #1204] sc_t=195976361133 ps q=3
[NIC cqe_tap #1205] sc_t=195976404090 ps q=2
[NIC cqe_tap #1206] sc_t=195976404090 ps q=3
[NIC cqe_tap #1207] sc_t=195976447047 ps q=2
[NIC cqe_tap #1208] sc_t=195976447047 ps q=3
[NIC cqe_tap #1209] sc_t=195976490004 ps q=2
[NIC cqe_tap #1210] sc_t=195976490004 ps q=3
[NIC cqe_tap #1211] sc_t=195976532961 ps q=2
[NIC cqe_tap #1212] sc_t=195976532961 ps q=3
[NIC cqe_tap #1213] sc_t=195976575918 ps q=2
[NIC cqe_tap #1214] sc_t=195976575918 ps q=3
[NIC cqe_tap #1215] sc_t=195983616204 ps q=2
[NIC cqe_tap #1216] sc_t=195983616204 ps q=3
[NIC cqe_tap #1217] sc_t=195984116370 ps q=2
[NIC cqe_tap #1218] sc_t=195984116370 ps q=3
[NIC cqe_tap #1219] sc_t=195984616536 ps q=2
[NIC cqe_tap #1220] sc_t=195984616536 ps q=3
[NIC cqe_tap #1221] sc_t=195985116702 ps q=2
[NIC cqe_tap #1222] sc_t=195985116702 ps q=3
[NIC cqe_tap #1223] sc_t=195985616868 ps q=2
[NIC cqe_tap #1224] sc_t=195985616868 ps q=3
[NIC cqe_tap #1225] sc_t=195986117034 ps q=2
[NIC cqe_tap #1226] sc_t=195986117034 ps q=3
[NIC cqe_tap #1227] sc_t=195986617200 ps q=2
[NIC cqe_tap #1228] sc_t=195986617200 ps q=3
[NIC cqe_tap #1229] sc_t=195987117366 ps q=2
[NIC cqe_tap #1230] sc_t=195987117366 ps q=3
[NIC cqe_tap #1231] sc_t=195987617532 ps q=2
[NIC cqe_tap #1232] sc_t=195987617532 ps q=3
[NIC cqe_tap #1233] sc_t=195988117698 ps q=2
[NIC cqe_tap #1234] sc_t=195988117698 ps q=3
[NIC cqe_tap #1235] sc_t=195988617864 ps q=2
[NIC cqe_tap #1236] sc_t=195988617864 ps q=3
[NIC cqe_tap #1237] sc_t=195989118030 ps q=2
[NIC cqe_tap #1238] sc_t=195989118030 ps q=3
[NIC cqe_tap #1239] sc_t=195989618196 ps q=2
[NIC cqe_tap #1240] sc_t=195989618196 ps q=3
[NIC cqe_tap #1241] sc_t=195990118362 ps q=2
[NIC cqe_tap #1242] sc_t=195990118362 ps q=3
[NIC cqe_tap #1243] sc_t=195990618528 ps q=2
[NIC cqe_tap #1244] sc_t=195990618528 ps q=3
[NIC cqe_tap #1245] sc_t=195991118694 ps q=2
[NIC cqe_tap #1246] sc_t=195991118694 ps q=3
[NIC cqe_tap #1247] sc_t=195991618860 ps q=2
[NIC cqe_tap #1248] sc_t=195991618860 ps q=3
[NIC cqe_tap #1249] sc_t=195992119026 ps q=2
[NIC cqe_tap #1250] sc_t=195992119026 ps q=3
[NIC cqe_tap #1251] sc_t=195992619192 ps q=2
[NIC cqe_tap #1252] sc_t=195992619192 ps q=3
[NIC cqe_tap #1253] sc_t=195993119358 ps q=2
[NIC cqe_tap #1254] sc_t=195993119358 ps q=3
[NIC cqe_tap #1255] sc_t=195993619524 ps q=2
[NIC cqe_tap #1256] sc_t=195993619524 ps q=3
[NIC cqe_tap #1257] sc_t=195994119690 ps q=2
[NIC cqe_tap #1258] sc_t=195994119690 ps q=3
[NIC cqe_tap #1259] sc_t=195994619856 ps q=2
[NIC cqe_tap #1260] sc_t=195994619856 ps q=3
[NIC cqe_tap #1261] sc_t=195995120022 ps q=2
[NIC cqe_tap #1262] sc_t=195995120022 ps q=3
[NIC cqe_tap #1263] sc_t=195995620188 ps q=2
[NIC cqe_tap #1264] sc_t=195995620188 ps q=3
[NIC cqe_tap #1265] sc_t=195996120354 ps q=2
[NIC cqe_tap #1266] sc_t=195996120354 ps q=3
[NIC cqe_tap #1267] sc_t=195996620520 ps q=2
[NIC cqe_tap #1268] sc_t=195996620520 ps q=3
[NIC cqe_tap #1269] sc_t=195997120686 ps q=2
[NIC cqe_tap #1270] sc_t=195997120686 ps q=3
[NIC cqe_tap #1271] sc_t=195997620852 ps q=2
[NIC cqe_tap #1272] sc_t=195997620852 ps q=3
[NIC cqe_tap #1273] sc_t=195998121018 ps q=2
[NIC cqe_tap #1274] sc_t=195998121018 ps q=3
[NIC cqe_tap #1275] sc_t=195998621184 ps q=2
[NIC cqe_tap #1276] sc_t=195998621184 ps q=3
[NIC cqe_tap #1277] sc_t=195999121350 ps q=2
[NIC cqe_tap #1278] sc_t=195999121350 ps q=3
[NIC cqe_tap #1279] sc_t=195999621516 ps q=2
[NIC cqe_tap #1280] sc_t=195999621516 ps q=3
[NIC cqe_tap #1281] sc_t=196000121682 ps q=2
[NIC cqe_tap #1282] sc_t=196000121682 ps q=3
[NIC cqe_tap #1283] sc_t=196000621848 ps q=2
[NIC cqe_tap #1284] sc_t=196000621848 ps q=3
[NIC cqe_tap #1285] sc_t=196001122014 ps q=2
[NIC cqe_tap #1286] sc_t=196001122014 ps q=3
[NIC cqe_tap #1287] sc_t=196001622180 ps q=2
[NIC cqe_tap #1288] sc_t=196001622180 ps q=3
[NIC cqe_tap #1289] sc_t=196002122346 ps q=2
[NIC cqe_tap #1290] sc_t=196002122346 ps q=3
[NIC cqe_tap #1291] sc_t=196002622512 ps q=2
[NIC cqe_tap #1292] sc_t=196002622512 ps q=3
[NIC cqe_tap #1293] sc_t=196003122678 ps q=2
[NIC cqe_tap #1294] sc_t=196003122678 ps q=3
[NIC cqe_tap #1295] sc_t=196003622844 ps q=2
[NIC cqe_tap #1296] sc_t=196003622844 ps q=3
[NIC cqe_tap #1297] sc_t=196004123010 ps q=2
[NIC cqe_tap #1298] sc_t=196004123010 ps q=3
[NIC cqe_tap #1299] sc_t=196004623176 ps q=2
[NIC cqe_tap #1300] sc_t=196004623176 ps q=3
[NIC cqe_tap #1301] sc_t=196005123342 ps q=2
[NIC cqe_tap #1302] sc_t=196005123342 ps q=3
[NIC cqe_tap #1303] sc_t=196005623508 ps q=2
[NIC cqe_tap #1304] sc_t=196005623508 ps q=3
[NIC cqe_tap #1305] sc_t=196006123674 ps q=2
[NIC cqe_tap #1306] sc_t=196006123674 ps q=3
[NIC cqe_tap #1307] sc_t=196006623840 ps q=2
[NIC cqe_tap #1308] sc_t=196006623840 ps q=3
[NIC cqe_tap #1309] sc_t=196007124006 ps q=2
[NIC cqe_tap #1310] sc_t=196007124006 ps q=3
[NIC cqe_tap #1311] sc_t=196007624172 ps q=2
[NIC cqe_tap #1312] sc_t=196007624172 ps q=3
[NIC cqe_tap #1313] sc_t=196008124338 ps q=2
[NIC cqe_tap #1314] sc_t=196008124338 ps q=3
[NIC cqe_tap #1315] sc_t=196008624504 ps q=2
[NIC cqe_tap #1316] sc_t=196008624504 ps q=3
[NIC cqe_tap #1317] sc_t=196009124670 ps q=2
[NIC cqe_tap #1318] sc_t=196009124670 ps q=3
[NIC cqe_tap #1319] sc_t=196009624836 ps q=2
[NIC cqe_tap #1320] sc_t=196009624836 ps q=3
[NIC cqe_tap #1321] sc_t=196010125002 ps q=2
[NIC cqe_tap #1322] sc_t=196010125002 ps q=3
[NIC cqe_tap #1323] sc_t=196010625168 ps q=2
[NIC cqe_tap #1324] sc_t=196010625168 ps q=3
[NIC cqe_tap #1325] sc_t=196011125334 ps q=2
[NIC cqe_tap #1326] sc_t=196011125334 ps q=3
[NIC cqe_tap #1327] sc_t=196011625500 ps q=2
[NIC cqe_tap #1328] sc_t=196011625500 ps q=3
[NIC cqe_tap #1329] sc_t=196012125666 ps q=2
[NIC cqe_tap #1330] sc_t=196012125666 ps q=3
[NIC cqe_tap #1331] sc_t=196012625832 ps q=2
[NIC cqe_tap #1332] sc_t=196012625832 ps q=3
[NIC cqe_tap #1333] sc_t=196013125998 ps q=2
[NIC cqe_tap #1334] sc_t=196013125998 ps q=3
[NIC cqe_tap #1335] sc_t=196013626164 ps q=2
[NIC cqe_tap #1336] sc_t=196013626164 ps q=3
[NIC cqe_tap #1337] sc_t=196014126330 ps q=2
[NIC cqe_tap #1338] sc_t=196014126330 ps q=3
[NIC cqe_tap #1339] sc_t=196014626496 ps q=2
[NIC cqe_tap #1340] sc_t=196014626496 ps q=3
[NIC cqe_tap #1341] sc_t=196015126662 ps q=2
[NIC cqe_tap #1342] sc_t=196015126662 ps q=3
[NIC cqe_tap #1343] sc_t=196015626828 ps q=2
[NIC cqe_tap #1344] sc_t=196015626828 ps q=3
[NIC cqe_tap #1345] sc_t=196016126994 ps q=2
[NIC cqe_tap #1346] sc_t=196016126994 ps q=3
[NIC cqe_tap #1347] sc_t=196016627160 ps q=2
[NIC cqe_tap #1348] sc_t=196016627160 ps q=3
[NIC cqe_tap #1349] sc_t=196017127326 ps q=2
[NIC cqe_tap #1350] sc_t=196017127326 ps q=3
[NIC cqe_tap #1351] sc_t=196017627492 ps q=2
[NIC cqe_tap #1352] sc_t=196017627492 ps q=3
[NIC cqe_tap #1353] sc_t=196018127658 ps q=2
[NIC cqe_tap #1354] sc_t=196018127658 ps q=3
[NIC cqe_tap #1355] sc_t=196018627824 ps q=2
[NIC cqe_tap #1356] sc_t=196018627824 ps q=3
[NIC cqe_tap #1357] sc_t=196019127990 ps q=2
[NIC cqe_tap #1358] sc_t=196019127990 ps q=3
[NIC cqe_tap #1359] sc_t=196019628156 ps q=2
[NIC cqe_tap #1360] sc_t=196019628156 ps q=3
[NIC cqe_tap #1361] sc_t=196020128322 ps q=2
[NIC cqe_tap #1362] sc_t=196020128322 ps q=3
[NIC cqe_tap #1363] sc_t=196020628488 ps q=2
[NIC cqe_tap #1364] sc_t=196020628488 ps q=3
[NIC cqe_tap #1365] sc_t=196021128654 ps q=2
[NIC cqe_tap #1366] sc_t=196021128654 ps q=3
[NIC cqe_tap #1367] sc_t=196021628820 ps q=2
[NIC cqe_tap #1368] sc_t=196021628820 ps q=3
[NIC cqe_tap #1369] sc_t=196022128986 ps q=2
[NIC cqe_tap #1370] sc_t=196022128986 ps q=3
[NIC cqe_tap #1371] sc_t=196022629152 ps q=2
[NIC cqe_tap #1372] sc_t=196022629152 ps q=3
[NIC cqe_tap #1373] sc_t=196023129318 ps q=2
[NIC cqe_tap #1374] sc_t=196023129318 ps q=3
[NIC cqe_tap #1375] sc_t=196023629484 ps q=2
[NIC cqe_tap #1376] sc_t=196023629484 ps q=3
[NIC cqe_tap #1377] sc_t=196024129650 ps q=2
[NIC cqe_tap #1378] sc_t=196024129650 ps q=3
[NIC cqe_tap #1379] sc_t=196024629816 ps q=2
[NIC cqe_tap #1380] sc_t=196024629816 ps q=3
[NIC cqe_tap #1381] sc_t=196025129982 ps q=2
[NIC cqe_tap #1382] sc_t=196025129982 ps q=3
[NIC cqe_tap #1383] sc_t=196025630148 ps q=2
[NIC cqe_tap #1384] sc_t=196025630148 ps q=3
[NIC cqe_tap #1385] sc_t=196026130314 ps q=2
[NIC cqe_tap #1386] sc_t=196026130314 ps q=3
[NIC cqe_tap #1387] sc_t=196026630480 ps q=2
[NIC cqe_tap #1388] sc_t=196026630480 ps q=3
[NIC cqe_tap #1389] sc_t=196027130646 ps q=2
[NIC cqe_tap #1390] sc_t=196027130646 ps q=3
[NIC cqe_tap #1391] sc_t=196027630812 ps q=2
[NIC cqe_tap #1392] sc_t=196027630812 ps q=3
[NIC cqe_tap #1393] sc_t=196028130978 ps q=2
[NIC cqe_tap #1394] sc_t=196028130978 ps q=3
[NIC cqe_tap #1395] sc_t=196028631144 ps q=2
[NIC cqe_tap #1396] sc_t=196028631144 ps q=3
[NIC cqe_tap #1397] sc_t=196029131310 ps q=2
[NIC cqe_tap #1398] sc_t=196029131310 ps q=3
[NIC cqe_tap #1399] sc_t=196029631476 ps q=2
[NIC cqe_tap #1400] sc_t=196029631476 ps q=3
[NIC cqe_tap #1401] sc_t=196030131642 ps q=2
[NIC cqe_tap #1402] sc_t=196030131642 ps q=3
[NIC cqe_tap #1403] sc_t=196030631808 ps q=2
[NIC cqe_tap #1404] sc_t=196030631808 ps q=3
[NIC cqe_tap #1405] sc_t=196031131974 ps q=2
[NIC cqe_tap #1406] sc_t=196031131974 ps q=3
[NIC cqe_tap #1407] sc_t=196031632140 ps q=2
[NIC cqe_tap #1408] sc_t=196031632140 ps q=3
[NIC cqe_tap #1409] sc_t=196032132306 ps q=2
[NIC cqe_tap #1410] sc_t=196032132306 ps q=3
[NIC cqe_tap #1411] sc_t=196032632472 ps q=2
[NIC cqe_tap #1412] sc_t=196032632472 ps q=3
[NIC cqe_tap #1413] sc_t=196033132638 ps q=2
[NIC cqe_tap #1414] sc_t=196033132638 ps q=3
[NIC cqe_tap #1415] sc_t=196033632804 ps q=2
[NIC cqe_tap #1416] sc_t=196033632804 ps q=3
[NIC cqe_tap #1417] sc_t=196034132970 ps q=2
[NIC cqe_tap #1418] sc_t=196034132970 ps q=3
[NIC cqe_tap #1419] sc_t=196034633136 ps q=2
[NIC cqe_tap #1420] sc_t=196034633136 ps q=3
[NIC cqe_tap #1421] sc_t=196035133302 ps q=2
[NIC cqe_tap #1422] sc_t=196035133302 ps q=3
[NIC cqe_tap #1423] sc_t=196035633468 ps q=2
[NIC cqe_tap #1424] sc_t=196035633468 ps q=3
[NIC cqe_tap #1425] sc_t=196036133634 ps q=2
[NIC cqe_tap #1426] sc_t=196036133634 ps q=3
[NIC cqe_tap #1427] sc_t=196036633800 ps q=2
[NIC cqe_tap #1428] sc_t=196036633800 ps q=3
[NIC cqe_tap #1429] sc_t=196037133966 ps q=2
[NIC cqe_tap #1430] sc_t=196037133966 ps q=3
[NIC cqe_tap #1431] sc_t=196037634132 ps q=2
[NIC cqe_tap #1432] sc_t=196037634132 ps q=3
[NIC cqe_tap #1433] sc_t=196038134298 ps q=2
[NIC cqe_tap #1434] sc_t=196038134298 ps q=3
[NIC cqe_tap #1435] sc_t=196038634464 ps q=2
[NIC cqe_tap #1436] sc_t=196038634464 ps q=3
[NIC cqe_tap #1437] sc_t=196039134630 ps q=2
[NIC cqe_tap #1438] sc_t=196039134630 ps q=3
[NIC cqe_tap #1439] sc_t=196039634796 ps q=2
[NIC cqe_tap #1440] sc_t=196039634796 ps q=3
[NIC cqe_tap #1441] sc_t=196040134962 ps q=2
[NIC cqe_tap #1442] sc_t=196040134962 ps q=3
[NIC cqe_tap #1443] sc_t=196040635128 ps q=2
[NIC cqe_tap #1444] sc_t=196040635128 ps q=3
[NIC cqe_tap #1445] sc_t=196041135294 ps q=2
[NIC cqe_tap #1446] sc_t=196041135294 ps q=3
[NIC cqe_tap #1447] sc_t=196041635460 ps q=2
[NIC cqe_tap #1448] sc_t=196041635460 ps q=3
[NIC cqe_tap #1449] sc_t=196042135626 ps q=2
[NIC cqe_tap #1450] sc_t=196042135626 ps q=3
[NIC cqe_tap #1451] sc_t=196042635792 ps q=2
[NIC cqe_tap #1452] sc_t=196042635792 ps q=3
[NIC cqe_tap #1453] sc_t=196043135958 ps q=2
[NIC cqe_tap #1454] sc_t=196043135958 ps q=3
[NIC cqe_tap #1455] sc_t=196043636124 ps q=2
[NIC cqe_tap #1456] sc_t=196043636124 ps q=3
[NIC cqe_tap #1457] sc_t=196044136290 ps q=2
[NIC cqe_tap #1458] sc_t=196044136290 ps q=3
[NIC cqe_tap #1459] sc_t=196044636456 ps q=2
[NIC cqe_tap #1460] sc_t=196044636456 ps q=3
[NIC cqe_tap #1461] sc_t=196045136622 ps q=2
[NIC cqe_tap #1462] sc_t=196045136622 ps q=3
[NIC cqe_tap #1463] sc_t=196045636788 ps q=2
[NIC cqe_tap #1464] sc_t=196045636788 ps q=3
[NIC cqe_tap #1465] sc_t=196046136954 ps q=2
[NIC cqe_tap #1466] sc_t=196046136954 ps q=3
[NIC cqe_tap #1467] sc_t=196046637120 ps q=2
[NIC cqe_tap #1468] sc_t=196046637120 ps q=3
[NIC cqe_tap #1469] sc_t=196047137286 ps q=2
[NIC cqe_tap #1470] sc_t=196047137286 ps q=3
[NIC cqe_tap #1471] sc_t=196053954129 ps q=2
[NIC cqe_tap #1472] sc_t=196053954129 ps q=3
[NIC cqe_tap #1473] sc_t=196053997086 ps q=2
[NIC cqe_tap #1474] sc_t=196053997086 ps q=3
[NIC cqe_tap #1475] sc_t=196054040043 ps q=2
[NIC cqe_tap #1476] sc_t=196054040043 ps q=3
[NIC cqe_tap #1477] sc_t=196054083 ns q=2
[NIC cqe_tap #1478] sc_t=196054083 ns q=3
[NIC cqe_tap #1479] sc_t=196054125957 ps q=2
[NIC cqe_tap #1480] sc_t=196054125957 ps q=3
[NIC cqe_tap #1481] sc_t=196054168914 ps q=2
[NIC cqe_tap #1482] sc_t=196054168914 ps q=3
[NIC cqe_tap #1483] sc_t=196054211871 ps q=2
[NIC cqe_tap #1484] sc_t=196054211871 ps q=3
[NIC cqe_tap #1485] sc_t=196054254828 ps q=2
[NIC cqe_tap #1486] sc_t=196054254828 ps q=3
[NIC cqe_tap #1487] sc_t=196054297785 ps q=2
[NIC cqe_tap #1488] sc_t=196054297785 ps q=3
[NIC cqe_tap #1489] sc_t=196054340742 ps q=2
[NIC cqe_tap #1490] sc_t=196054340742 ps q=3
[NIC cqe_tap #1491] sc_t=196054383699 ps q=2
[NIC cqe_tap #1492] sc_t=196054383699 ps q=3
[NIC cqe_tap #1493] sc_t=196054426656 ps q=2
[NIC cqe_tap #1494] sc_t=196054426656 ps q=3
[NIC cqe_tap #1495] sc_t=196054469613 ps q=2
[NIC cqe_tap #1496] sc_t=196054469613 ps q=3
[NIC cqe_tap #1497] sc_t=196054512570 ps q=2
[NIC cqe_tap #1498] sc_t=196054512570 ps q=3
[NIC cqe_tap #1499] sc_t=196054555527 ps q=2
[NIC cqe_tap #1500] sc_t=196054555527 ps q=3
[NIC cqe_tap #1501] sc_t=196054598484 ps q=2
[NIC cqe_tap #1502] sc_t=196054598484 ps q=3
[NIC cqe_tap #1503] sc_t=196054641441 ps q=2
[NIC cqe_tap #1504] sc_t=196054641441 ps q=3
[NIC cqe_tap #1505] sc_t=196054684398 ps q=2
[NIC cqe_tap #1506] sc_t=196054684398 ps q=3
[NIC cqe_tap #1507] sc_t=196054727355 ps q=2
[NIC cqe_tap #1508] sc_t=196054727355 ps q=3
[NIC cqe_tap #1509] sc_t=196054770312 ps q=2
[NIC cqe_tap #1510] sc_t=196054770312 ps q=3
[NIC cqe_tap #1511] sc_t=196054813269 ps q=2
[NIC cqe_tap #1512] sc_t=196054813269 ps q=3
[NIC cqe_tap #1513] sc_t=196054856226 ps q=2
[NIC cqe_tap #1514] sc_t=196054856226 ps q=3
[NIC cqe_tap #1515] sc_t=196054899183 ps q=2
[NIC cqe_tap #1516] sc_t=196054899183 ps q=3
[NIC cqe_tap #1517] sc_t=196054942140 ps q=2
[NIC cqe_tap #1518] sc_t=196054942140 ps q=3
[NIC cqe_tap #1519] sc_t=196054985097 ps q=2
[NIC cqe_tap #1520] sc_t=196054985097 ps q=3
[NIC cqe_tap #1521] sc_t=196055028054 ps q=2
[NIC cqe_tap #1522] sc_t=196055028054 ps q=3
[NIC cqe_tap #1523] sc_t=196055071011 ps q=2
[NIC cqe_tap #1524] sc_t=196055071011 ps q=3
[NIC cqe_tap #1525] sc_t=196055113968 ps q=2
[NIC cqe_tap #1526] sc_t=196055113968 ps q=3
[NIC cqe_tap #1527] sc_t=196055156925 ps q=2
[NIC cqe_tap #1528] sc_t=196055156925 ps q=3
[NIC cqe_tap #1529] sc_t=196055199882 ps q=2
[NIC cqe_tap #1530] sc_t=196055199882 ps q=3
[NIC cqe_tap #1531] sc_t=196055242839 ps q=2
[NIC cqe_tap #1532] sc_t=196055242839 ps q=3
[NIC cqe_tap #1533] sc_t=196055285796 ps q=2
[NIC cqe_tap #1534] sc_t=196055285796 ps q=3
[NIC cqe_tap #1535] sc_t=196055328753 ps q=2
[NIC cqe_tap #1536] sc_t=196055328753 ps q=3
[NIC cqe_tap #1537] sc_t=196055371710 ps q=2
[NIC cqe_tap #1538] sc_t=196055371710 ps q=3
[NIC cqe_tap #1539] sc_t=196055414667 ps q=2
[NIC cqe_tap #1540] sc_t=196055414667 ps q=3
[NIC cqe_tap #1541] sc_t=196055457624 ps q=2
[NIC cqe_tap #1542] sc_t=196055457624 ps q=3
[NIC cqe_tap #1543] sc_t=196055500581 ps q=2
[NIC cqe_tap #1544] sc_t=196055500581 ps q=3
[NIC cqe_tap #1545] sc_t=196055543538 ps q=2
[NIC cqe_tap #1546] sc_t=196055543538 ps q=3
[NIC cqe_tap #1547] sc_t=196055586495 ps q=2
[NIC cqe_tap #1548] sc_t=196055586495 ps q=3
[NIC cqe_tap #1549] sc_t=196055629452 ps q=2
[NIC cqe_tap #1550] sc_t=196055629452 ps q=3
[NIC cqe_tap #1551] sc_t=196055672409 ps q=2
[NIC cqe_tap #1552] sc_t=196055672409 ps q=3
[NIC cqe_tap #1553] sc_t=196055715366 ps q=2
[NIC cqe_tap #1554] sc_t=196055715366 ps q=3
[NIC cqe_tap #1555] sc_t=196055758323 ps q=2
[NIC cqe_tap #1556] sc_t=196055758323 ps q=3
[NIC cqe_tap #1557] sc_t=196055801280 ps q=2
[NIC cqe_tap #1558] sc_t=196055801280 ps q=3
[NIC cqe_tap #1559] sc_t=196055844237 ps q=2
[NIC cqe_tap #1560] sc_t=196055844237 ps q=3
[NIC cqe_tap #1561] sc_t=196055887194 ps q=2
[NIC cqe_tap #1562] sc_t=196055887194 ps q=3
[NIC cqe_tap #1563] sc_t=196055930151 ps q=2
[NIC cqe_tap #1564] sc_t=196055930151 ps q=3
[NIC cqe_tap #1565] sc_t=196055973108 ps q=2
[NIC cqe_tap #1566] sc_t=196055973108 ps q=3
[NIC cqe_tap #1567] sc_t=196056016065 ps q=2
[NIC cqe_tap #1568] sc_t=196056016065 ps q=3
[NIC cqe_tap #1569] sc_t=196056059022 ps q=2
[NIC cqe_tap #1570] sc_t=196056059022 ps q=3
[NIC cqe_tap #1571] sc_t=196056101979 ps q=2
[NIC cqe_tap #1572] sc_t=196056101979 ps q=3
[NIC cqe_tap #1573] sc_t=196056144936 ps q=2
[...]
[NIC cqe_tap #3171] sc_t=196252024194 ps q=2
[NIC cqe_tap #3172] sc_t=196252024194 ps q=3
[NIC cqe_tap #3173] sc_t=196252524360 ps q=2
[NIC cqe_tap #3174] sc_t=196252524360 ps q=3
[NIC cqe_tap #3175] sc_t=196253024526 ps q=2
[NIC cqe_tap #3176] sc_t=196253024526 ps q=3
[NIC cqe_tap #3177] sc_t=196253524692 ps q=2
[NIC cqe_tap #3178] sc_t=196253524692 ps q=3
[NIC cqe_tap #3179] sc_t=196254024858 ps q=2
[NIC cqe_tap #3180] sc_t=196254024858 ps q=3
[NIC cqe_tap #3181] sc_t=196254525024 ps q=2
[NIC cqe_tap #3182] sc_t=196254525024 ps q=3
[NIC cqe_tap #3183] sc_t=196255025190 ps q=2
[NIC cqe_tap #3184] sc_t=196255025190 ps q=3
[NIC cqe_tap #3185] sc_t=196255525356 ps q=2
[NIC cqe_tap #3186] sc_t=196255525356 ps q=3
[NIC cqe_tap #3187] sc_t=196256025522 ps q=2
[NIC cqe_tap #3188] sc_t=196256025522 ps q=3
[NIC cqe_tap #3189] sc_t=196256525688 ps q=2
[NIC cqe_tap #3190] sc_t=196256525688 ps q=3
[NIC cqe_tap #3191] sc_t=196257025854 ps q=2
[NIC cqe_tap #3192] sc_t=196257025854 ps q=3
[NIC cqe_tap #3193] sc_t=196257526020 ps q=2
[NIC cqe_tap #3194] sc_t=196257526020 ps q=3
[NIC cqe_tap #3195] sc_t=196258026186 ps q=2
[NIC cqe_tap #3196] sc_t=196258026186 ps q=3
[NIC cqe_tap #3197] sc_t=196258526352 ps q=2
[NIC cqe_tap #3198] sc_t=196258526352 ps q=3
[NIC cqe_tap #3199] sc_t=196259026518 ps q=2
[NIC cqe_tap #3200] sc_t=196259026518 ps q=3
[NIC cqe_tap #3201] sc_t=196259526684 ps q=2
[NIC cqe_tap #3202] sc_t=196259526684 ps q=3
[NIC cqe_tap #3203] sc_t=196260026850 ps q=2
[NIC cqe_tap #3204] sc_t=196260026850 ps q=3
[NIC cqe_tap #3205] sc_t=196260527016 ps q=2
[NIC cqe_tap #3206] sc_t=196260527016 ps q=3
[NIC cqe_tap #3207] sc_t=196261027182 ps q=2
[NIC cqe_tap #3208] sc_t=196261027182 ps q=3
[NIC cqe_tap #3209] sc_t=196261527348 ps q=2
[NIC cqe_tap #3210] sc_t=196261527348 ps q=3
[NIC cqe_tap #3211] sc_t=196262027514 ps q=2
[NIC cqe_tap #3212] sc_t=196262027514 ps q=3
[NIC cqe_tap #3213] sc_t=196262527680 ps q=2
[NIC cqe_tap #3214] sc_t=196262527680 ps q=3
[NIC cqe_tap #3215] sc_t=196263027846 ps q=2
[NIC cqe_tap #3216] sc_t=196263027846 ps q=3
[NIC cqe_tap #3217] sc_t=196263528012 ps q=2
[NIC cqe_tap #3218] sc_t=196263528012 ps q=3
[NIC cqe_tap #3219] sc_t=196264028178 ps q=2
[NIC cqe_tap #3220] sc_t=196264028178 ps q=3
[NIC cqe_tap #3221] sc_t=196264528344 ps q=2
[NIC cqe_tap #3222] sc_t=196264528344 ps q=3
[NIC cqe_tap #3223] sc_t=196265028510 ps q=2
[NIC cqe_tap #3224] sc_t=196265028510 ps q=3
[NIC cqe_tap #3225] sc_t=196265528676 ps q=2
[NIC cqe_tap #3226] sc_t=196265528676 ps q=3
[NIC cqe_tap #3227] sc_t=196266028842 ps q=2
[NIC cqe_tap #3228] sc_t=196266028842 ps q=3
[NIC cqe_tap #3229] sc_t=196266529008 ps q=2
[NIC cqe_tap #3230] sc_t=196266529008 ps q=3
[NIC cqe_tap #3231] sc_t=196267029174 ps q=2
[NIC cqe_tap #3232] sc_t=196267029174 ps q=3
[NIC cqe_tap #3233] sc_t=196267529340 ps q=2
[NIC cqe_tap #3234] sc_t=196267529340 ps q=3
[NIC cqe_tap #3235] sc_t=196268029506 ps q=2
[NIC cqe_tap #3236] sc_t=196268029506 ps q=3
[NIC cqe_tap #3237] sc_t=196268529672 ps q=2
[NIC cqe_tap #3238] sc_t=196268529672 ps q=3
[NIC cqe_tap #3239] sc_t=196269029838 ps q=2
[NIC cqe_tap #3240] sc_t=196269029838 ps q=3
[NIC cqe_tap #3241] sc_t=196269530004 ps q=2
[NIC cqe_tap #3242] sc_t=196269530004 ps q=3
[NIC cqe_tap #3243] sc_t=196270030170 ps q=2
[NIC cqe_tap #3244] sc_t=196270030170 ps q=3
[NIC cqe_tap #3245] sc_t=196270530336 ps q=2
[NIC cqe_tap #3246] sc_t=196270530336 ps q=3
[NIC cqe_tap #3247] sc_t=196271030502 ps q=2
[NIC cqe_tap #3248] sc_t=196271030502 ps q=3
[NIC cqe_tap #3249] sc_t=196271530668 ps q=2
[NIC cqe_tap #3250] sc_t=196271530668 ps q=3
[NIC cqe_tap #3251] sc_t=196272030834 ps q=2
[NIC cqe_tap #3252] sc_t=196272030834 ps q=3
[NIC cqe_tap #3253] sc_t=196272531 ns q=2
[NIC cqe_tap #3254] sc_t=196272531 ns q=3
[NIC cqe_tap #3255] sc_t=196273031166 ps q=2
[NIC cqe_tap #3256] sc_t=196273031166 ps q=3
[NIC cqe_tap #3257] sc_t=196273531332 ps q=2
[NIC cqe_tap #3258] sc_t=196273531332 ps q=3
[NIC cqe_tap #3259] sc_t=196274031498 ps q=2
[NIC cqe_tap #3260] sc_t=196274031498 ps q=3
[NIC cqe_tap #3261] sc_t=196274531664 ps q=2
[NIC cqe_tap #3262] sc_t=196274531664 ps q=3
[NIC cqe_tap #3263] sc_t=196275031830 ps q=2
[NIC cqe_tap #3264] sc_t=196275031830 ps q=3
[NIC cqe_tap #3265] sc_t=196275531996 ps q=2
[NIC cqe_tap #3266] sc_t=196275531996 ps q=3
[NIC cqe_tap #3267] sc_t=196276032162 ps q=2
[NIC cqe_tap #3268] sc_t=196276032162 ps q=3
[NIC cqe_tap #3269] sc_t=196276532328 ps q=2
[NIC cqe_tap #3270] sc_t=196276532328 ps q=3
[NIC cqe_tap #3271] sc_t=196277032494 ps q=2
[NIC cqe_tap #3272] sc_t=196277032494 ps q=3
[NIC cqe_tap #3273] sc_t=196277532660 ps q=2
[NIC cqe_tap #3274] sc_t=196277532660 ps q=3
[NIC cqe_tap #3275] sc_t=196278032826 ps q=2
[NIC cqe_tap #3276] sc_t=196278032826 ps q=3
[NIC cqe_tap #3277] sc_t=196278532992 ps q=2
[NIC cqe_tap #3278] sc_t=196278532992 ps q=3
[NIC cqe_tap #3279] sc_t=196279033158 ps q=2
[NIC cqe_tap #3280] sc_t=196279033158 ps q=3
[NIC cqe_tap #3281] sc_t=196279533324 ps q=2
[NIC cqe_tap #3282] sc_t=196279533324 ps q=3
[NIC cqe_tap #3283] sc_t=196280033490 ps q=2
[NIC cqe_tap #3284] sc_t=196280033490 ps q=3
[NIC cqe_tap #3285] sc_t=196280533656 ps q=2
[NIC cqe_tap #3286] sc_t=196280533656 ps q=3
[NIC cqe_tap #3287] sc_t=196281033822 ps q=2
[NIC cqe_tap #3288] sc_t=196281033822 ps q=3
[NIC cqe_tap #3289] sc_t=196281533988 ps q=2
[NIC cqe_tap #3290] sc_t=196281533988 ps q=3
[NIC cqe_tap #3291] sc_t=196282034154 ps q=2
[NIC cqe_tap #3292] sc_t=196282034154 ps q=3
[NIC cqe_tap #3293] sc_t=196282534320 ps q=2
[NIC cqe_tap #3294] sc_t=196282534320 ps q=3
[NIC cqe_tap #3295] sc_t=196283034486 ps q=2
[NIC cqe_tap #3296] sc_t=196283034486 ps q=3
[NIC cqe_tap #3297] sc_t=196283534652 ps q=2
[NIC cqe_tap #3298] sc_t=196283534652 ps q=3
[NIC cqe_tap #3299] sc_t=196284034818 ps q=2
[NIC cqe_tap #3300] sc_t=196284034818 ps q=3
[NIC cqe_tap #3301] sc_t=196284534984 ps q=2
[NIC cqe_tap #3302] sc_t=196284534984 ps q=3
[NIC cqe_tap #3303] sc_t=196285035150 ps q=2
[NIC cqe_tap #3304] sc_t=196285035150 ps q=3
[NIC cqe_tap #3305] sc_t=196285535316 ps q=2
[NIC cqe_tap #3306] sc_t=196285535316 ps q=3
[NIC cqe_tap #3307] sc_t=196286035482 ps q=2
[NIC cqe_tap #3308] sc_t=196286035482 ps q=3
[NIC cqe_tap #3309] sc_t=196286535648 ps q=2
[NIC cqe_tap #3310] sc_t=196286535648 ps q=3
[NIC cqe_tap #3311] sc_t=196287035814 ps q=2
[NIC cqe_tap #3312] sc_t=196287035814 ps q=3
[NIC cqe_tap #3313] sc_t=196287535980 ps q=2
[NIC cqe_tap #3314] sc_t=196287535980 ps q=3
[NIC cqe_tap #3315] sc_t=196288036146 ps q=2
[NIC cqe_tap #3316] sc_t=196288036146 ps q=3
[NIC cqe_tap #3317] sc_t=196288536312 ps q=2
[NIC cqe_tap #3318] sc_t=196288536312 ps q=3
[NIC cqe_tap #3319] sc_t=196289036478 ps q=2
[NIC cqe_tap #3320] sc_t=196289036478 ps q=3
[NIC cqe_tap #3321] sc_t=196289536644 ps q=2
[NIC cqe_tap #3322] sc_t=196289536644 ps q=3
[NIC cqe_tap #3323] sc_t=196290036810 ps q=2
[NIC cqe_tap #3324] sc_t=196290036810 ps q=3
[NIC cqe_tap #3325] sc_t=196290536976 ps q=2
[NIC cqe_tap #3326] sc_t=196290536976 ps q=3
[NIC cqe_tap #3327] sc_t=196291037142 ps q=2
[NIC cqe_tap #3328] sc_t=196291037142 ps q=3
[NIC cqe_tap #3329] sc_t=196291537308 ps q=2
[NIC cqe_tap #3330] sc_t=196291537308 ps q=3
[NIC cqe_tap #3331] sc_t=196292037474 ps q=2
[NIC cqe_tap #3332] sc_t=196292037474 ps q=3
[NIC cqe_tap #3333] sc_t=196292537640 ps q=2
[NIC cqe_tap #3334] sc_t=196292537640 ps q=3
[NIC cqe_tap #3335] sc_t=196293037806 ps q=2
[NIC cqe_tap #3336] sc_t=196293037806 ps q=3
[NIC cqe_tap #3337] sc_t=196293537972 ps q=2
[NIC cqe_tap #3338] sc_t=196293537972 ps q=3
[NIC cqe_tap #3339] sc_t=196294038138 ps q=2
[NIC cqe_tap #3340] sc_t=196294038138 ps q=3
[NIC cqe_tap #3341] sc_t=196294538304 ps q=2
[NIC cqe_tap #3342] sc_t=196294538304 ps q=3
[NIC cqe_tap #3343] sc_t=196295038470 ps q=2
[NIC cqe_tap #3344] sc_t=196295038470 ps q=3
[NIC cqe_tap #3345] sc_t=196295538636 ps q=2
[NIC cqe_tap #3346] sc_t=196295538636 ps q=3
[NIC cqe_tap #3347] sc_t=196296038802 ps q=2
[NIC cqe_tap #3348] sc_t=196296038802 ps q=3
[NIC cqe_tap #3349] sc_t=196296538968 ps q=2
[NIC cqe_tap #3350] sc_t=196296538968 ps q=3
[NIC cqe_tap #3351] sc_t=196297039134 ps q=2
[NIC cqe_tap #3352] sc_t=196297039134 ps q=3
[NIC cqe_tap #3353] sc_t=196297539300 ps q=2
[NIC cqe_tap #3354] sc_t=196297539300 ps q=3
[NIC cqe_tap #3355] sc_t=196298039466 ps q=2
[NIC cqe_tap #3356] sc_t=196298039466 ps q=3
[NIC cqe_tap #3357] sc_t=196298539632 ps q=2
[NIC cqe_tap #3358] sc_t=196298539632 ps q=3
[NIC cqe_tap #3359] sc_t=196299039798 ps q=2
[NIC cqe_tap #3360] sc_t=196299039798 ps q=3
[NIC cqe_tap #3361] sc_t=196299539964 ps q=2
[NIC cqe_tap #3362] sc_t=196299539964 ps q=3
[NIC cqe_tap #3363] sc_t=196300040130 ps q=2
[NIC cqe_tap #3364] sc_t=196300040130 ps q=3
[NIC cqe_tap #3365] sc_t=196300540296 ps q=2
[NIC cqe_tap #3366] sc_t=196300540296 ps q=3
[NIC cqe_tap #3367] sc_t=196301040462 ps q=2
[NIC cqe_tap #3368] sc_t=196301040462 ps q=3
[NIC cqe_tap #3369] sc_t=196301540628 ps q=2
[NIC cqe_tap #3370] sc_t=196301540628 ps q=3
[NIC cqe_tap #3371] sc_t=196302040794 ps q=2
[NIC cqe_tap #3372] sc_t=196302040794 ps q=3
[NIC cqe_tap #3373] sc_t=196302540960 ps q=2
[NIC cqe_tap #3374] sc_t=196302540960 ps q=3
[NIC cqe_tap #3375] sc_t=196303041126 ps q=2
[NIC cqe_tap #3376] sc_t=196303041126 ps q=3
[NIC cqe_tap #3377] sc_t=196303541292 ps q=2
[NIC cqe_tap #3378] sc_t=196303541292 ps q=3
[NIC cqe_tap #3379] sc_t=196304041458 ps q=2
[NIC cqe_tap #3380] sc_t=196304041458 ps q=3
[NIC cqe_tap #3381] sc_t=196304541624 ps q=2
[NIC cqe_tap #3382] sc_t=196304541624 ps q=3
[NIC cqe_tap #3383] sc_t=196305041790 ps q=2
[NIC cqe_tap #3384] sc_t=196305041790 ps q=3
[NIC cqe_tap #3385] sc_t=196305541956 ps q=2
[NIC cqe_tap #3386] sc_t=196305541956 ps q=3
[NIC cqe_tap #3387] sc_t=196306042122 ps q=2
[NIC cqe_tap #3388] sc_t=196306042122 ps q=3
[NIC cqe_tap #3389] sc_t=196306542288 ps q=2
[NIC cqe_tap #3390] sc_t=196306542288 ps q=3
[NIC cqe_tap #3391] sc_t=196307042454 ps q=2
[NIC cqe_tap #3392] sc_t=196307042454 ps q=3
[NIC cqe_tap #3393] sc_t=196307542620 ps q=2
[NIC cqe_tap #3394] sc_t=196307542620 ps q=3
[NIC cqe_tap #3395] sc_t=196308042786 ps q=2
[NIC cqe_tap #3396] sc_t=196308042786 ps q=3
[NIC cqe_tap #3397] sc_t=196308542952 ps q=2
[NIC cqe_tap #3398] sc_t=196308542952 ps q=3
[NIC cqe_tap #3399] sc_t=196309043118 ps q=2
[NIC cqe_tap #3400] sc_t=196309043118 ps q=3
[NIC cqe_tap #3401] sc_t=196309543284 ps q=2
[NIC cqe_tap #3402] sc_t=196309543284 ps q=3
[NIC cqe_tap #3403] sc_t=196310043450 ps q=2
[NIC cqe_tap #3404] sc_t=196310043450 ps q=3
[NIC cqe_tap #3405] sc_t=196310543616 ps q=2
[NIC cqe_tap #3406] sc_t=196310543616 ps q=3
[NIC cqe_tap #3407] sc_t=196311043782 ps q=2
[NIC cqe_tap #3408] sc_t=196311043782 ps q=3
[NIC cqe_tap #3409] sc_t=196311543948 ps q=2
[NIC cqe_tap #3410] sc_t=196311543948 ps q=3
[NIC cqe_tap #3411] sc_t=196312044114 ps q=2
[NIC cqe_tap #3412] sc_t=196312044114 ps q=3
[NIC cqe_tap #3413] sc_t=196312544280 ps q=2
[NIC cqe_tap #3414] sc_t=196312544280 ps q=3
[NIC cqe_tap #3415] sc_t=196313044446 ps q=2
[NIC cqe_tap #3416] sc_t=196313044446 ps q=3
[NIC cqe_tap #3417] sc_t=196313544612 ps q=2
[NIC cqe_tap #3418] sc_t=196313544612 ps q=3
[NIC cqe_tap #3419] sc_t=196314044778 ps q=2
[NIC cqe_tap #3420] sc_t=196314044778 ps q=3
[NIC cqe_tap #3421] sc_t=196314544944 ps q=2
[NIC cqe_tap #3422] sc_t=196314544944 ps q=3
[NIC cqe_tap #3423] sc_t=196315045110 ps q=2
[NIC cqe_tap #3424] sc_t=196315045110 ps q=3
[NIC cqe_tap #3425] sc_t=196315545276 ps q=2
[NIC cqe_tap #3426] sc_t=196315545276 ps q=3
[NIC cqe_tap #3427] sc_t=196316045442 ps q=2
[NIC cqe_tap #3428] sc_t=196316045442 ps q=3
[NIC cqe_tap #3429] sc_t=196316545608 ps q=2
[NIC cqe_tap #3430] sc_t=196316545608 ps q=3
[NIC cqe_tap #3431] sc_t=196317045774 ps q=2
[NIC cqe_tap #3432] sc_t=196317045774 ps q=3
[NIC cqe_tap #3433] sc_t=196317545940 ps q=2
[NIC cqe_tap #3434] sc_t=196317545940 ps q=3
[NIC cqe_tap #3435] sc_t=196318046106 ps q=2
[NIC cqe_tap #3436] sc_t=196318046106 ps q=3
[NIC cqe_tap #3437] sc_t=196318546272 ps q=2
[NIC cqe_tap #3438] sc_t=196318546272 ps q=3
[NIC cqe_tap #3439] sc_t=196319046438 ps q=2
[NIC cqe_tap #3440] sc_t=196319046438 ps q=3
[NIC cqe_tap #3441] sc_t=196319546604 ps q=2
[NIC cqe_tap #3442] sc_t=196319546604 ps q=3
[NIC cqe_tap #3443] sc_t=196320046770 ps q=2
[NIC cqe_tap #3444] sc_t=196320046770 ps q=3
[NIC cqe_tap #3445] sc_t=196320546936 ps q=2
[NIC cqe_tap #3446] sc_t=196320546936 ps q=3
[NIC cqe_tap #3447] sc_t=196321047102 ps q=2
[NIC cqe_tap #3448] sc_t=196321047102 ps q=3
[NIC cqe_tap #3449] sc_t=196321547268 ps q=2
[NIC cqe_tap #3450] sc_t=196321547268 ps q=3
[NIC cqe_tap #3451] sc_t=196322047434 ps q=2
[NIC cqe_tap #3452] sc_t=196322047434 ps q=3
[NIC cqe_tap #3453] sc_t=196322547600 ps q=2
[NIC cqe_tap #3454] sc_t=196322547600 ps q=3
[NIC cqe_tap #3455] sc_t=196323047766 ps q=2
[NIC cqe_tap #3456] sc_t=196323047766 ps q=3
[NIC cqe_tap #3457] sc_t=196323547932 ps q=2
[NIC cqe_tap #3458] sc_t=196323547932 ps q=3
[NIC cqe_tap #3459] sc_t=196324048098 ps q=2
[NIC cqe_tap #3460] sc_t=196324048098 ps q=3
[NIC cqe_tap #3461] sc_t=196324548264 ps q=2
[NIC cqe_tap #3462] sc_t=196324548264 ps q=3
[NIC cqe_tap #3463] sc_t=196325048430 ps q=2
[NIC cqe_tap #3464] sc_t=196325048430 ps q=3
[NIC cqe_tap #3465] sc_t=196325548596 ps q=2
[NIC cqe_tap #3466] sc_t=196325548596 ps q=3
[NIC cqe_tap #3467] sc_t=196326048762 ps q=2
[NIC cqe_tap #3468] sc_t=196326048762 ps q=3
[NIC cqe_tap #3469] sc_t=196326548928 ps q=2
[NIC cqe_tap #3470] sc_t=196326548928 ps q=3
[NIC cqe_tap #3471] sc_t=196327049094 ps q=2
[NIC cqe_tap #3472] sc_t=196327049094 ps q=3
[NIC cqe_tap #3473] sc_t=196327549260 ps q=2
[NIC cqe_tap #3474] sc_t=196327549260 ps q=3
[NIC cqe_tap #3475] sc_t=196328049426 ps q=2
[NIC cqe_tap #3476] sc_t=196328049426 ps q=3
[NIC cqe_tap #3477] sc_t=196328549592 ps q=2
[NIC cqe_tap #3478] sc_t=196328549592 ps q=3
[NIC cqe_tap #3479] sc_t=196329049758 ps q=2
[NIC cqe_tap #3480] sc_t=196329049758 ps q=3
[NIC cqe_tap #3481] sc_t=196329549924 ps q=2
[NIC cqe_tap #3482] sc_t=196329549924 ps q=3
[NIC cqe_tap #3483] sc_t=196330050090 ps q=2
[NIC cqe_tap #3484] sc_t=196330050090 ps q=3
[NIC cqe_tap #3485] sc_t=196330550256 ps q=2
[NIC cqe_tap #3486] sc_t=196330550256 ps q=3
[NIC cqe_tap #3487] sc_t=196331050422 ps q=2
[NIC cqe_tap #3488] sc_t=196331050422 ps q=3
[NIC cqe_tap #3489] sc_t=196331550588 ps q=2
[NIC cqe_tap #3490] sc_t=196331550588 ps q=3
[NIC cqe_tap #3491] sc_t=196332050754 ps q=2
[NIC cqe_tap #3492] sc_t=196332050754 ps q=3
[NIC cqe_tap #3493] sc_t=196332550920 ps q=2
[NIC cqe_tap #3494] sc_t=196332550920 ps q=3
[NIC cqe_tap #3495] sc_t=196333051086 ps q=2
[NIC cqe_tap #3496] sc_t=196333051086 ps q=3
[NIC cqe_tap #3497] sc_t=196333551252 ps q=2
[NIC cqe_tap #3498] sc_t=196333551252 ps q=3
[NIC cqe_tap #3499] sc_t=196334051418 ps q=2
[NIC cqe_tap #3500] sc_t=196334051418 ps q=3
[NIC cqe_tap #3501] sc_t=196334551584 ps q=2
[NIC cqe_tap #3502] sc_t=196334551584 ps q=3
[NIC cqe_tap #3503] sc_t=196335051750 ps q=2
[NIC cqe_tap #3504] sc_t=196335051750 ps q=3
[NIC cqe_tap #3505] sc_t=196335551916 ps q=2
[NIC cqe_tap #3506] sc_t=196335551916 ps q=3
[NIC cqe_tap #3507] sc_t=196336052082 ps q=2
[NIC cqe_tap #3508] sc_t=196336052082 ps q=3
[NIC cqe_tap #3509] sc_t=196336552248 ps q=2
[NIC cqe_tap #3510] sc_t=196336552248 ps q=3
[NIC cqe_tap #3511] sc_t=196337052414 ps q=2
[NIC cqe_tap #3512] sc_t=196337052414 ps q=3
[NIC cqe_tap #3513] sc_t=196337552580 ps q=2
[NIC cqe_tap #3514] sc_t=196337552580 ps q=3
[NIC cqe_tap #3515] sc_t=196338052746 ps q=2
[NIC cqe_tap #3516] sc_t=196338052746 ps q=3
[NIC cqe_tap #3517] sc_t=196338552912 ps q=2
[NIC cqe_tap #3518] sc_t=196338552912 ps q=3
[NIC cqe_tap #3519] sc_t=204442843176 ps q=1
[NIC cqe_tap #3520] sc_t=204442843176 ps q=2
[NIC cqe_tap #3521] sc_t=204443347005 ps q=2
[NIC cqe_tap #3522] sc_t=204443347005 ps q=3
[NIC cqe_tap #3523] sc_t=204443850834 ps q=2
[NIC cqe_tap #3524] sc_t=204443850834 ps q=3
[NIC cqe_tap #3525] sc_t=204444354663 ps q=2
[NIC cqe_tap #3526] sc_t=204444354663 ps q=3
[NIC cqe_tap #3527] sc_t=204444858492 ps q=2
[NIC cqe_tap #3528] sc_t=204444858492 ps q=3
[NIC cqe_tap #3529] sc_t=204445362321 ps q=2
[NIC cqe_tap #3530] sc_t=204445362321 ps q=3
[NIC cqe_tap #3531] sc_t=204445866150 ps q=2
[NIC cqe_tap #3532] sc_t=204445866150 ps q=3
[NIC cqe_tap #3533] sc_t=204446369979 ps q=2
[NIC cqe_tap #3534] sc_t=204446369979 ps q=3
[NIC cqe_tap #3535] sc_t=204446873808 ps q=2
[NIC cqe_tap #3536] sc_t=204446873808 ps q=3
[NIC cqe_tap #3537] sc_t=204447377637 ps q=2
[NIC cqe_tap #3538] sc_t=204447377637 ps q=3
[NIC cqe_tap #3539] sc_t=204447881466 ps q=2
[NIC cqe_tap #3540] sc_t=204447881466 ps q=3
[NIC cqe_tap #3541] sc_t=204448385295 ps q=2
[NIC cqe_tap #3542] sc_t=204448385295 ps q=3
[NIC cqe_tap #3543] sc_t=204448889124 ps q=2
[NIC cqe_tap #3544] sc_t=204448889124 ps q=3
[NIC cqe_tap #3545] sc_t=204449392953 ps q=2
[NIC cqe_tap #3546] sc_t=204449392953 ps q=3
[NIC cqe_tap #3547] sc_t=204449896782 ps q=2
[NIC cqe_tap #3548] sc_t=204449896782 ps q=3
[NIC cqe_tap #3549] sc_t=204450400611 ps q=2
[NIC cqe_tap #3550] sc_t=204450400611 ps q=3
[NIC cqe_tap #3551] sc_t=204533526735 ps q=2
[NIC cqe_tap #3552] sc_t=204533526735 ps q=3
[NIC cqe_tap #3553] sc_t=204534030564 ps q=2
[NIC cqe_tap #3554] sc_t=204534030564 ps q=3
[NIC cqe_tap #3555] sc_t=204534534393 ps q=2
[NIC cqe_tap #3556] sc_t=204534534393 ps q=3
[NIC cqe_tap #3557] sc_t=204535038222 ps q=2
[NIC cqe_tap #3558] sc_t=204535038222 ps q=3
[NIC cqe_tap #3559] sc_t=204535542051 ps q=2
[NIC cqe_tap #3560] sc_t=204535542051 ps q=3
[NIC cqe_tap #3561] sc_t=204536045880 ps q=2
[NIC cqe_tap #3562] sc_t=204536045880 ps q=3
[NIC cqe_tap #3563] sc_t=204536549709 ps q=2
[NIC cqe_tap #3564] sc_t=204536549709 ps q=3
[NIC cqe_tap #3565] sc_t=204537053538 ps q=2
[NIC cqe_tap #3566] sc_t=204537053538 ps q=3
[NIC cqe_tap #3567] sc_t=204537557367 ps q=2
[NIC cqe_tap #3568] sc_t=204537557367 ps q=3
[NIC cqe_tap #3569] sc_t=204538061196 ps q=2
[NIC cqe_tap #3570] sc_t=204538061196 ps q=3
[NIC cqe_tap #3571] sc_t=204538565025 ps q=2
[NIC cqe_tap #3572] sc_t=204538565025 ps q=3
[NIC cqe_tap #3573] sc_t=204539068854 ps q=2
[NIC cqe_tap #3574] sc_t=204539068854 ps q=3
[NIC cqe_tap #3575] sc_t=204539572683 ps q=2
[NIC cqe_tap #3576] sc_t=204539572683 ps q=3
[NIC cqe_tap #3577] sc_t=204540076512 ps q=2
[NIC cqe_tap #3578] sc_t=204540076512 ps q=3
[NIC cqe_tap #3579] sc_t=204540580341 ps q=2
[NIC cqe_tap #3580] sc_t=204540580341 ps q=3
[NIC cqe_tap #3581] sc_t=204541084170 ps q=2
[NIC cqe_tap #3582] sc_t=204541084170 ps q=3
[NIC cqe_tap #3583] sc_t=204635882277 ps q=2
[NIC cqe_tap #3584] sc_t=204635882277 ps q=3
[NIC cqe_tap #3585] sc_t=204636386106 ps q=2
[NIC cqe_tap #3586] sc_t=204636386106 ps q=3
[NIC cqe_tap #3587] sc_t=204636889935 ps q=2
[NIC cqe_tap #3588] sc_t=204636889935 ps q=3
[NIC cqe_tap #3589] sc_t=204637393764 ps q=2
[NIC cqe_tap #3590] sc_t=204637393764 ps q=3
[NIC cqe_tap #3591] sc_t=204637897593 ps q=2
[NIC cqe_tap #3592] sc_t=204637897593 ps q=3
[NIC cqe_tap #3593] sc_t=204638401422 ps q=2
[NIC cqe_tap #3594] sc_t=204638401422 ps q=3
[NIC cqe_tap #3595] sc_t=204638905251 ps q=2
[NIC cqe_tap #3596] sc_t=204638905251 ps q=3
[NIC cqe_tap #3597] sc_t=204639409080 ps q=2
[NIC cqe_tap #3598] sc_t=204639409080 ps q=3
[NIC cqe_tap #3599] sc_t=204639912909 ps q=2
[NIC cqe_tap #3600] sc_t=204639912909 ps q=3
[NIC cqe_tap #3601] sc_t=204640416738 ps q=2
[NIC cqe_tap #3602] sc_t=204640416738 ps q=3
[NIC cqe_tap #3603] sc_t=204640920567 ps q=2
[NIC cqe_tap #3604] sc_t=204640920567 ps q=3
[NIC cqe_tap #3605] sc_t=204641424396 ps q=2
[NIC cqe_tap #3606] sc_t=204641424396 ps q=3
[NIC cqe_tap #3607] sc_t=204641928225 ps q=2
[NIC cqe_tap #3608] sc_t=204641928225 ps q=3
[NIC cqe_tap #3609] sc_t=204642432054 ps q=2
[NIC cqe_tap #3610] sc_t=204642432054 ps q=3
[NIC cqe_tap #3611] sc_t=204642935883 ps q=2
[NIC cqe_tap #3612] sc_t=204642935883 ps q=3
[NIC cqe_tap #3613] sc_t=204643439712 ps q=2
[NIC cqe_tap #3614] sc_t=204643439712 ps q=3
