Global frequency set at 1000000000000 ticks per second
warn: No dot file generated. Please install pydot to generate the dot file and pdf.
src/mem/dram_interface.cc:690: warn: DRAM device capacity (8192 Mbytes) does not match the address range assigned (2048 Mbytes)
src/sim/kernel_workload.cc:46: info: kernel located at: /tmp/gem5_sys/binaries/vmlinux
src/base/loader/symtab.cc:95: warn: Cannot insert a new symbol table due to name collisions. Adding prefix to each symbol's name can resolve this issue.
src/base/statistics.hh:279: warn: One of the stats is a legacy stat. Legacy stat is a stat that does not belong to any statistics::Group. Legacy stat is deprecated.
[NICTopologySC system.nic] constructed; 38-module TLM topology online
src/base/vnc/vncserver.cc:163: warn: Sockets disabled, not accepting vnc client connections
src/dev/serial/terminal.cc:174: warn: Sockets disabled, not accepting terminal connections
src/base/remote_gdb.cc:418: warn: Sockets disabled, not accepting gdb connections
src/arch/arm/fs_workload.cc:121: info: Using bootloader at address 0x10
src/arch/arm/fs_workload.cc:139: info: Using kernel entry physical address at 0x80080000
src/arch/arm/linux/fs_workload.cc:98: info: Loading initrd file: /home/ubuntu/OpenURMA/eval/twonode/gem5_scaffold/driver/initramfs.cpio.gz at address 0x88200000
src/arch/arm/linux/fs_workload.cc:111: info: Loading DTB file: /tmp/m5_tier2_full/system.dtb at address 0x88000000
src/dev/arm/energy_ctrl.cc:252: warn: Existing EnergyCtrl, but no enabled DVFSHandler found.
gem5 Simulator System.  https://www.gem5.org
gem5 is copyrighted software; use the --copyright option for details.

gem5 version 24.0.0.1
gem5 compiled May 27 2026 08:30:28
gem5 started May 27 2026 08:32:04
gem5 executing on ubuntu, pid 3746975
command line: /home/ubuntu/gem5/build/ARM/gem5.opt --outdir=/tmp/m5_tier2_full /home/ubuntu/OpenURMA/eval/twonode/gem5_scaffold/configs/single_node_fs_clean.py --kernel=vmlinux --initrd=/home/ubuntu/OpenURMA/eval/twonode/gem5_scaffold/driver/initramfs.cpio.gz --mem-size=2GB --link-delay-ns=0 --cpu atomic

info: Standard input is not a terminal, disabling listeners.
[single_node_fs_clean] booting kernel=vmlinux
src/sim/simulate.cc:199: info: Entering event queue @ 0.  Starting simulation...
src/dev/arm/rv_ctrl.cc:176: warn: SCReg: Access to unknown device dcc0:site0:pos0:fn7:dev0
src/dev/arm/rv_ctrl.cc:122: warn: Tried to read RealView I/O at offset 0x60 that doesn't exist
src/dev/arm/rv_ctrl.cc:122: warn: Tried to read RealView I/O at offset 0x48 that doesn't exist
src/dev/arm/rv_ctrl.cc:198: warn: Tried to write RVIO at offset 0xa8 (data 0) that doesn't exist
src/dev/arm/rv_ctrl.cc:198: warn: Tried to write RVIO at offset 0xa8 (data 0) that doesn't exist
src/dev/arm/rv_ctrl.cc:198: warn: Tried to write RVIO at offset 0xa8 (data 0) that doesn't exist
src/dev/arm/rv_ctrl.cc:198: warn: Tried to write RVIO at offset 0xa8 (data 0) that doesn't exist
src/dev/arm/rv_ctrl.cc:198: warn: Tried to write RVIO at offset 0xa8 (data 0) that doesn't exist
src/dev/arm/rv_ctrl.cc:198: warn: Tried to write RVIO at offset 0xa8 (data 0) that doesn't exist
src/dev/arm/rv_ctrl.cc:198: warn: Tried to write RVIO at offset 0xa8 (data 0) that doesn't exist
src/dev/arm/rv_ctrl.cc:198: warn: Tried to write RVIO at offset 0xa8 (data 0) that doesn't exist
src/dev/arm/rv_ctrl.cc:198: warn: Tried to write RVIO at offset 0xa8 (data 0) that doesn't exist
src/dev/arm/rv_ctrl.cc:198: warn: Tried to write RVIO at offset 0xa8 (data 0) that doesn't exist
src/dev/arm/rv_ctrl.cc:122: warn: Tried to read RealView I/O at offset 0x8 that doesn't exist
src/dev/arm/rv_ctrl.cc:122: warn: Tried to read RealView I/O at offset 0x48 that doesn't exist
src/dev/arm/energy_ctrl.cc:77: warn: EnergyCtrl: Disabled handler, ignoring read from reg 0
src/arch/arm/insts/pseudo.cc:174: warn: 	instruction 'bti' unimplemented
[NIC mmio_b] cmd=W off=0x0 len=8 cq_q=0 sc_t=5916792036582 ps
[NIC mmio_b] cmd=W off=0x8 len=8 cq_q=0 sc_t=5916792036915 ps
[NIC mmio_b] cmd=W off=0x10 len=8 cq_q=0 sc_t=5916792037248 ps
[NIC mmio_b] cmd=W off=0x18 len=8 cq_q=0 sc_t=5916792037581 ps
[NIC mmio_b] cmd=W off=0x20 len=8 cq_q=0 sc_t=5916792203082 ps
[NIC mmio_b] cmd=W off=0x28 len=8 cq_q=0 sc_t=5916792203415 ps
[NIC mmio_b] cmd=W off=0x30 len=8 cq_q=0 sc_t=5916792203748 ps
[NIC mmio_b] cmd=W off=0x38 len=8 cq_q=0 sc_t=5916792204081 ps
[NIC mmio_b] cmd=W off=0x0 len=8 cq_q=0 sc_t=5916792453165 ps
[NIC mmio_b] cmd=W off=0x8 len=8 cq_q=0 sc_t=5916792453498 ps
[NIC mmio_b] cmd=W off=0x10 len=8 cq_q=0 sc_t=5916792453831 ps
[NIC mmio_b] cmd=W off=0x18 len=8 cq_q=0 sc_t=5916792454164 ps
[NIC mmio_b] cmd=W off=0x20 len=8 cq_q=0 sc_t=5916792619665 ps
[NIC mmio_b] cmd=W off=0x28 len=8 cq_q=0 sc_t=5916792619998 ps
[NIC mmio_b] cmd=W off=0x30 len=8 cq_q=0 sc_t=5916792620331 ps
[NIC mmio_b] cmd=W off=0x38 len=8 cq_q=0 sc_t=5916792620664 ps
[NIC wire_tx_tap #1] sc_t=5916792620664 ps
[NIC wire_rx_b #1] sc_t=5916792620664 ps cqe_q=0
[NIC wire_tx_tap #2] sc_t=5916792620664 ps
[NIC wire_rx_b #2] sc_t=5916792620664 ps cqe_q=0
[NIC wire_tx_tap #3] sc_t=5916792620664 ps
[NIC wire_rx_b #3] sc_t=5916792620664 ps cqe_q=0
[NIC wire_tx_tap #4] sc_t=5916792620664 ps
[NIC wire_rx_b #4] sc_t=5916792620664 ps cqe_q=0
[NIC wire_tx_tap #5] sc_t=5916792620664 ps
[NIC wire_rx_b #5] sc_t=5916792620664 ps cqe_q=0
[NIC cqe_tap #1] sc_t=5916792620664 ps q=1
[NIC cqe_tap #2] sc_t=5916792620664 ps q=2
[NIC wire_rx_b #5] drained, cqe_q=2 cycles=2
[NIC wire_rx_b #5] drained, cqe_q=2 cycles=2
[NIC wire_rx_b #5] drained, cqe_q=2 cycles=3
[NIC wire_rx_b #5] drained, cqe_q=2 cycles=3
[NIC wire_rx_b #5] drained, cqe_q=2 cycles=3
[NIC mmio_b] cmd=R off=0x40 len=16 cq_q=2 sc_t=5916792831453 ps
[NIC mmio_b] cmd=R off=0x50 len=16 cq_q=1 sc_t=5916792831786 ps
[NIC mmio_b] cmd=R off=0x60 len=16 cq_q=1 sc_t=5916792916035 ps
[NIC mmio_b] cmd=R off=0x70 len=16 cq_q=1 sc_t=5916792916368 ps
[NIC mmio_b] cmd=W off=0x0 len=8 cq_q=1 sc_t=5918659564185 ps
[NIC mmio_b] cmd=W off=0x8 len=8 cq_q=1 sc_t=5918659812270 ps
[NIC mmio_b] cmd=W off=0x10 len=8 cq_q=1 sc_t=5918660060355 ps
[NIC mmio_b] cmd=W off=0x18 len=8 cq_q=1 sc_t=5918660308440 ps
[NIC mmio_b] cmd=W off=0x20 len=8 cq_q=1 sc_t=5918660556525 ps
[NIC mmio_b] cmd=W off=0x28 len=8 cq_q=1 sc_t=5918660804610 ps
[NIC mmio_b] cmd=W off=0x30 len=8 cq_q=1 sc_t=5918661052695 ps
[NIC mmio_b] cmd=W off=0x38 len=8 cq_q=1 sc_t=5918661300780 ps
[NIC mmio_b] cmd=W off=0x0 len=8 cq_q=1 sc_t=5918662541871 ps
[NIC mmio_b] cmd=W off=0x8 len=8 cq_q=1 sc_t=5918662789956 ps
[NIC mmio_b] cmd=W off=0x10 len=8 cq_q=1 sc_t=5918663038041 ps
[NIC mmio_b] cmd=W off=0x18 len=8 cq_q=1 sc_t=5918663286126 ps
[NIC mmio_b] cmd=W off=0x20 len=8 cq_q=1 sc_t=5918663534211 ps
[NIC mmio_b] cmd=W off=0x28 len=8 cq_q=1 sc_t=5918663782296 ps
[NIC mmio_b] cmd=W off=0x30 len=8 cq_q=1 sc_t=5918664030381 ps
[NIC mmio_b] cmd=W off=0x38 len=8 cq_q=1 sc_t=5918664278466 ps
[NIC wire_tx_tap #6] sc_t=5918664278466 ps
[NIC wire_rx_b #6] sc_t=5918664278466 ps cqe_q=1
[NIC wire_tx_tap #7] sc_t=5918664278466 ps
[NIC wire_rx_b #7] sc_t=5918664278466 ps cqe_q=1
[NIC wire_tx_tap #8] sc_t=5918664278466 ps
[NIC wire_rx_b #8] sc_t=5918664278466 ps cqe_q=1
[NIC wire_tx_tap #9] sc_t=5918664278466 ps
[NIC wire_rx_b #9] sc_t=5918664278466 ps cqe_q=1
[NIC wire_tx_tap #10] sc_t=5918664278466 ps
[NIC wire_rx_b #10] sc_t=5918664278466 ps cqe_q=1
[NIC cqe_tap #3] sc_t=5918664278466 ps q=2
[NIC cqe_tap #4] sc_t=5918664278466 ps q=3
[NIC wire_rx_b #10] drained, cqe_q=3 cycles=2
[NIC wire_rx_b #10] drained, cqe_q=3 cycles=2
[NIC wire_rx_b #10] drained, cqe_q=3 cycles=3
[NIC wire_rx_b #10] drained, cqe_q=3 cycles=3
[NIC wire_rx_b #10] drained, cqe_q=3 cycles=3
[NIC mmio_b] cmd=R off=0x40 len=8 cq_q=3 sc_t=5918692731984 ps
[NIC mmio_b] cmd=R off=0x48 len=8 cq_q=1 sc_t=5918692938777 ps
[NIC mmio_b] cmd=R off=0x50 len=8 cq_q=1 sc_t=5918693145570 ps
[NIC mmio_b] cmd=R off=0x58 len=8 cq_q=1 sc_t=5918693352363 ps
[NIC mmio_b] cmd=R off=0x60 len=8 cq_q=1 sc_t=5918693559156 ps
[NIC mmio_b] cmd=R off=0x68 len=8 cq_q=1 sc_t=5918693765949 ps
[NIC mmio_b] cmd=R off=0x70 len=8 cq_q=1 sc_t=5918693972742 ps
[NIC mmio_b] cmd=R off=0x78 len=8 cq_q=1 sc_t=5918694179535 ps
[NIC mmio_b] cmd=W off=0x0 len=8 cq_q=1 sc_t=5919469938333 ps
[NIC mmio_b] cmd=W off=0x8 len=8 cq_q=1 sc_t=5919470186418 ps
[NIC mmio_b] cmd=W off=0x10 len=8 cq_q=1 sc_t=5919470434503 ps
[NIC mmio_b] cmd=W off=0x18 len=8 cq_q=1 sc_t=5919470682588 ps
[NIC mmio_b] cmd=W off=0x20 len=8 cq_q=1 sc_t=5919470930673 ps
[NIC mmio_b] cmd=W off=0x28 len=8 cq_q=1 sc_t=5919471178758 ps
[NIC mmio_b] cmd=W off=0x30 len=8 cq_q=1 sc_t=5919471426843 ps
[NIC mmio_b] cmd=W off=0x38 len=8 cq_q=1 sc_t=5919471674928 ps
[NIC mmio_b] cmd=W off=0x0 len=8 cq_q=1 sc_t=5919472916019 ps
[NIC mmio_b] cmd=W off=0x8 len=8 cq_q=1 sc_t=5919473164104 ps
[NIC mmio_b] cmd=W off=0x10 len=8 cq_q=1 sc_t=5919473412189 ps
[NIC mmio_b] cmd=W off=0x18 len=8 cq_q=1 sc_t=5919473660274 ps
[NIC mmio_b] cmd=W off=0x20 len=8 cq_q=1 sc_t=5919473908359 ps
[NIC mmio_b] cmd=W off=0x28 len=8 cq_q=1 sc_t=5919474156444 ps
[NIC mmio_b] cmd=W off=0x30 len=8 cq_q=1 sc_t=5919474404529 ps
[NIC mmio_b] cmd=W off=0x38 len=8 cq_q=1 sc_t=5919474652614 ps
[NIC wire_tx_tap #11] sc_t=5919474652614 ps
[NIC wire_rx_b #11] sc_t=5919474652614 ps cqe_q=1
[NIC wire_tx_tap #12] sc_t=5919474652614 ps
[NIC wire_rx_b #12] sc_t=5919474652614 ps cqe_q=1
[NIC wire_tx_tap #13] sc_t=5919474652614 ps
[NIC wire_rx_b #13] sc_t=5919474652614 ps cqe_q=1
[NIC wire_tx_tap #14] sc_t=5919474652614 ps
[NIC wire_rx_b #14] sc_t=5919474652614 ps cqe_q=1
[NIC wire_tx_tap #15] sc_t=5919474652614 ps
[NIC wire_rx_b #15] sc_t=5919474652614 ps cqe_q=1
[NIC cqe_tap #5] sc_t=5919474652614 ps q=2
[NIC cqe_tap #6] sc_t=5919474652614 ps q=3
[NIC wire_rx_b #15] drained, cqe_q=3 cycles=2
[NIC wire_rx_b #15] drained, cqe_q=3 cycles=2
[NIC wire_rx_b #15] drained, cqe_q=3 cycles=3
[NIC wire_rx_b #15] drained, cqe_q=3 cycles=3
[NIC wire_rx_b #15] drained, cqe_q=3 cycles=3
[NIC wire_tx_tap #16] sc_t=5920433985654 ps
[NIC wire_rx_b #16] sc_t=5920433985654 ps cqe_q=1
[NIC wire_tx_tap #17] sc_t=5920433985654 ps
[NIC wire_tx_tap #18] sc_t=5920433985654 ps
[NIC wire_tx_tap #19] sc_t=5920433985654 ps
[NIC wire_tx_tap #20] sc_t=5920433985654 ps
[NIC cqe_tap #7] sc_t=5920433985654 ps q=2
[NIC cqe_tap #8] sc_t=5920433985654 ps q=3
[NIC wire_tx_tap #21] sc_t=5920437562074 ps
[NIC wire_tx_tap #22] sc_t=5920437562074 ps
[NIC wire_tx_tap #23] sc_t=5920437562074 ps
[NIC wire_tx_tap #24] sc_t=5920437562074 ps
[NIC wire_tx_tap #25] sc_t=5920437562074 ps
[NIC cqe_tap #9] sc_t=5920437562074 ps q=2
[NIC cqe_tap #10] sc_t=5920437562074 ps q=3
[NIC wire_tx_tap #26] sc_t=5920441138494 ps
[NIC wire_tx_tap #27] sc_t=5920441138494 ps
[NIC wire_tx_tap #28] sc_t=5920441138494 ps
[NIC wire_tx_tap #29] sc_t=5920441138494 ps
[NIC wire_tx_tap #30] sc_t=5920441138494 ps
[NIC cqe_tap #11] sc_t=5920441138494 ps q=2
[NIC cqe_tap #12] sc_t=5920441138494 ps q=3
[NIC wire_tx_tap #31] sc_t=5920444714914 ps
[NIC wire_tx_tap #32] sc_t=5920444714914 ps
[NIC cqe_tap #13] sc_t=5920444714914 ps q=2
[NIC cqe_tap #14] sc_t=5920444714914 ps q=3
[NIC cqe_tap #15] sc_t=5921375315382 ps q=2
[NIC cqe_tap #16] sc_t=5921375315382 ps q=3
[NIC cqe_tap #17] sc_t=5921433879759 ps q=2
[NIC cqe_tap #18] sc_t=5921433879759 ps q=3
[NIC_DECOMP] drains=64 cum_cycles=38 ethdec=27 jsched=11
[NIC cqe_tap #19] sc_t=5921492444136 ps q=2
[NIC cqe_tap #20] sc_t=5921492444136 ps q=3
[NIC cqe_tap #21] sc_t=5921551008513 ps q=2
[NIC cqe_tap #22] sc_t=5921551008513 ps q=3
[NIC cqe_tap #23] sc_t=5922960779331 ps q=2
[NIC cqe_tap #24] sc_t=5922960779331 ps q=3
[NIC cqe_tap #25] sc_t=5923096907400 ps q=2
[NIC cqe_tap #26] sc_t=5923096907400 ps q=3
[NIC cqe_tap #27] sc_t=5923233035469 ps q=2
[NIC cqe_tap #28] sc_t=5923233035469 ps q=3
[NIC cqe_tap #29] sc_t=5923369163538 ps q=2
[NIC cqe_tap #30] sc_t=5923369163538 ps q=3
[NIC cqe_tap #31] sc_t=5924328455286 ps q=2
[NIC cqe_tap #32] sc_t=5924328455286 ps q=3
[NIC cqe_tap #33] sc_t=5924332031706 ps q=2
[NIC cqe_tap #34] sc_t=5924332031706 ps q=3
[NIC cqe_tap #35] sc_t=5924335608126 ps q=2
[NIC cqe_tap #36] sc_t=5924335608126 ps q=3
[NIC cqe_tap #37] sc_t=5924339184546 ps q=2
[NIC cqe_tap #38] sc_t=5924339184546 ps q=3
[NIC cqe_tap #39] sc_t=5924342760966 ps q=2
[NIC cqe_tap #40] sc_t=5924342760966 ps q=3
[NIC cqe_tap #41] sc_t=5924346337386 ps q=2
[NIC cqe_tap #42] sc_t=5924346337386 ps q=3
[NIC cqe_tap #43] sc_t=5924349913806 ps q=2
[NIC cqe_tap #44] sc_t=5924349913806 ps q=3
[NIC cqe_tap #45] sc_t=5924353490226 ps q=2
[NIC cqe_tap #46] sc_t=5924353490226 ps q=3
[NIC cqe_tap #47] sc_t=5924357066646 ps q=2
[NIC cqe_tap #48] sc_t=5924357066646 ps q=3
[NIC cqe_tap #49] sc_t=5924360643066 ps q=2
[NIC cqe_tap #50] sc_t=5924360643066 ps q=3
[NIC cqe_tap #51] sc_t=5924364219486 ps q=2
[NIC cqe_tap #52] sc_t=5924364219486 ps q=3
[NIC cqe_tap #53] sc_t=5924367795906 ps q=2
[NIC cqe_tap #54] sc_t=5924367795906 ps q=3
[NIC cqe_tap #55] sc_t=5924371372326 ps q=2
[NIC cqe_tap #56] sc_t=5924371372326 ps q=3
[NIC cqe_tap #57] sc_t=5924374948746 ps q=2
[NIC cqe_tap #58] sc_t=5924374948746 ps q=3
[NIC cqe_tap #59] sc_t=5924378525166 ps q=2
[NIC cqe_tap #60] sc_t=5924378525166 ps q=3
[NIC cqe_tap #61] sc_t=5924382101586 ps q=2
[NIC cqe_tap #62] sc_t=5924382101586 ps q=3
[NIC cqe_tap #63] sc_t=5925295761012 ps q=2
[NIC cqe_tap #64] sc_t=5925295761012 ps q=3
[NIC cqe_tap #65] sc_t=5925354325389 ps q=2
[NIC cqe_tap #66] sc_t=5925354325389 ps q=3
[NIC cqe_tap #67] sc_t=5925412889766 ps q=2
[NIC cqe_tap #68] sc_t=5925412889766 ps q=3
[NIC cqe_tap #69] sc_t=5925471454143 ps q=2
[NIC cqe_tap #70] sc_t=5925471454143 ps q=3
[NIC cqe_tap #71] sc_t=5925530018520 ps q=2
[NIC cqe_tap #72] sc_t=5925530018520 ps q=3
[NIC cqe_tap #73] sc_t=5925588582897 ps q=2
[NIC cqe_tap #74] sc_t=5925588582897 ps q=3
[NIC cqe_tap #75] sc_t=5925647147274 ps q=2
[NIC cqe_tap #76] sc_t=5925647147274 ps q=3
[NIC cqe_tap #77] sc_t=5925705711651 ps q=2
[NIC cqe_tap #78] sc_t=5925705711651 ps q=3
[NIC cqe_tap #79] sc_t=5925764276028 ps q=2
[NIC cqe_tap #80] sc_t=5925764276028 ps q=3
[NIC cqe_tap #81] sc_t=5925822840405 ps q=2
[NIC cqe_tap #82] sc_t=5925822840405 ps q=3
[NIC cqe_tap #83] sc_t=5925881404782 ps q=2
[NIC cqe_tap #84] sc_t=5925881404782 ps q=3
[NIC cqe_tap #85] sc_t=5925939969159 ps q=2
[NIC cqe_tap #86] sc_t=5925939969159 ps q=3
[NIC cqe_tap #87] sc_t=5925998533536 ps q=2
[NIC cqe_tap #88] sc_t=5925998533536 ps q=3
[NIC cqe_tap #89] sc_t=5926057097913 ps q=2
[NIC cqe_tap #90] sc_t=5926057097913 ps q=3
[NIC cqe_tap #91] sc_t=5926115662290 ps q=2
[NIC cqe_tap #92] sc_t=5926115662290 ps q=3
[NIC cqe_tap #93] sc_t=5926174226667 ps q=2
[NIC cqe_tap #94] sc_t=5926174226667 ps q=3
[NIC cqe_tap #95] sc_t=5927616297153 ps q=2
[NIC cqe_tap #96] sc_t=5927616297153 ps q=3
[NIC cqe_tap #97] sc_t=5927752425222 ps q=2
[NIC cqe_tap #98] sc_t=5927752425222 ps q=3
[NIC cqe_tap #99] sc_t=5927888553291 ps q=2
[NIC cqe_tap #100] sc_t=5927888553291 ps q=3
[NIC cqe_tap #101] sc_t=5928024681360 ps q=2
[NIC cqe_tap #102] sc_t=5928024681360 ps q=3
[NIC cqe_tap #103] sc_t=5928160809429 ps q=2
[NIC cqe_tap #104] sc_t=5928160809429 ps q=3
[NIC cqe_tap #105] sc_t=5928296937498 ps q=2
[NIC cqe_tap #106] sc_t=5928296937498 ps q=3
[NIC cqe_tap #107] sc_t=5928433065567 ps q=2
[NIC cqe_tap #108] sc_t=5928433065567 ps q=3
[NIC cqe_tap #109] sc_t=5928569193636 ps q=2
[NIC cqe_tap #110] sc_t=5928569193636 ps q=3
[NIC cqe_tap #111] sc_t=5928705321705 ps q=2
[NIC cqe_tap #112] sc_t=5928705321705 ps q=3
[NIC cqe_tap #113] sc_t=5928841449774 ps q=2
[NIC cqe_tap #114] sc_t=5928841449774 ps q=3
[NIC cqe_tap #115] sc_t=5928977577843 ps q=2
[NIC cqe_tap #116] sc_t=5928977577843 ps q=3
[NIC cqe_tap #117] sc_t=5929113705912 ps q=2
[NIC cqe_tap #118] sc_t=5929113705912 ps q=3
[NIC cqe_tap #119] sc_t=5929249833981 ps q=2
[NIC cqe_tap #120] sc_t=5929249833981 ps q=3
[NIC cqe_tap #121] sc_t=5929385962050 ps q=2
[NIC cqe_tap #122] sc_t=5929385962050 ps q=3
[NIC cqe_tap #123] sc_t=5929522090119 ps q=2
[NIC cqe_tap #124] sc_t=5929522090119 ps q=3
[NIC cqe_tap #125] sc_t=5929658218188 ps q=2
[NIC cqe_tap #126] sc_t=5929658218188 ps q=3
[NIC cqe_tap #127] sc_t=5931356748291 ps q=2
[NIC cqe_tap #128] sc_t=5931356748291 ps q=3
[NIC_DECOMP] drains=448 cum_cycles=257 ethdec=192 jsched=65
[NIC cqe_tap #129] sc_t=5931360324711 ps q=2
[NIC cqe_tap #130] sc_t=5931360324711 ps q=3
[NIC cqe_tap #131] sc_t=5931363901131 ps q=2
[NIC cqe_tap #132] sc_t=5931363901131 ps q=3
[NIC cqe_tap #133] sc_t=5931367477551 ps q=2
[NIC cqe_tap #134] sc_t=5931367477551 ps q=3
[NIC cqe_tap #135] sc_t=5931371053971 ps q=2
[NIC cqe_tap #136] sc_t=5931371053971 ps q=3
[NIC cqe_tap #137] sc_t=5931374630391 ps q=2
[NIC cqe_tap #138] sc_t=5931374630391 ps q=3
[NIC cqe_tap #139] sc_t=5931378206811 ps q=2
[NIC cqe_tap #140] sc_t=5931378206811 ps q=3
[NIC cqe_tap #141] sc_t=5931381783231 ps q=2
[NIC cqe_tap #142] sc_t=5931381783231 ps q=3
[NIC cqe_tap #143] sc_t=5931385359651 ps q=2
[NIC cqe_tap #144] sc_t=5931385359651 ps q=3
[NIC cqe_tap #145] sc_t=5931388936071 ps q=2
[NIC cqe_tap #146] sc_t=5931388936071 ps q=3
[NIC_DECOMP] drains=512 cum_cycles=294 ethdec=219 jsched=75
[NIC cqe_tap #147] sc_t=5931392512491 ps q=2
[NIC cqe_tap #148] sc_t=5931392512491 ps q=3
[NIC cqe_tap #149] sc_t=5931396088911 ps q=2
[NIC cqe_tap #150] sc_t=5931396088911 ps q=3
[NIC cqe_tap #151] sc_t=5931399665331 ps q=2
[NIC cqe_tap #152] sc_t=5931399665331 ps q=3
[NIC cqe_tap #153] sc_t=5931403241751 ps q=2
[NIC cqe_tap #154] sc_t=5931403241751 ps q=3
[NIC cqe_tap #155] sc_t=5931406818171 ps q=2
[NIC cqe_tap #156] sc_t=5931406818171 ps q=3
[NIC cqe_tap #157] sc_t=5931410394591 ps q=2
[NIC cqe_tap #158] sc_t=5931410394591 ps q=3
[NIC cqe_tap #159] sc_t=5931413971011 ps q=2
[NIC cqe_tap #160] sc_t=5931413971011 ps q=3
[NIC cqe_tap #161] sc_t=5931417547431 ps q=2
[NIC cqe_tap #162] sc_t=5931417547431 ps q=3
[NIC cqe_tap #163] sc_t=5931421123851 ps q=2
[NIC cqe_tap #164] sc_t=5931421123851 ps q=3
[NIC cqe_tap #165] sc_t=5931424700271 ps q=2
[NIC cqe_tap #166] sc_t=5931424700271 ps q=3
[NIC cqe_tap #167] sc_t=5931428276691 ps q=2
[NIC cqe_tap #168] sc_t=5931428276691 ps q=3
[NIC cqe_tap #169] sc_t=5931431853111 ps q=2
[NIC cqe_tap #170] sc_t=5931431853111 ps q=3
[NIC cqe_tap #171] sc_t=5931435429531 ps q=2
[NIC cqe_tap #172] sc_t=5931435429531 ps q=3
[NIC cqe_tap #173] sc_t=5931439005951 ps q=2
[NIC cqe_tap #174] sc_t=5931439005951 ps q=3
[NIC cqe_tap #175] sc_t=5931442582371 ps q=2
[NIC cqe_tap #176] sc_t=5931442582371 ps q=3
[NIC cqe_tap #177] sc_t=5931446158791 ps q=2
[NIC cqe_tap #178] sc_t=5931446158791 ps q=3
[NIC cqe_tap #179] sc_t=5931449735211 ps q=2
[NIC cqe_tap #180] sc_t=5931449735211 ps q=3
[NIC cqe_tap #181] sc_t=5931453311631 ps q=2
[NIC cqe_tap #182] sc_t=5931453311631 ps q=3
[NIC cqe_tap #183] sc_t=5931456888051 ps q=2
[NIC cqe_tap #184] sc_t=5931456888051 ps q=3
[NIC cqe_tap #185] sc_t=5931460464471 ps q=2
[NIC cqe_tap #186] sc_t=5931460464471 ps q=3
[NIC cqe_tap #187] sc_t=5931464040891 ps q=2
[NIC cqe_tap #188] sc_t=5931464040891 ps q=3
[NIC cqe_tap #189] sc_t=5931467617311 ps q=2
[NIC cqe_tap #190] sc_t=5931467617311 ps q=3
[NIC cqe_tap #191] sc_t=5931471193731 ps q=2
[NIC cqe_tap #192] sc_t=5931471193731 ps q=3
[NIC cqe_tap #193] sc_t=5931474770151 ps q=2
[NIC cqe_tap #194] sc_t=5931474770151 ps q=3
[NIC cqe_tap #195] sc_t=5931478346571 ps q=2
[NIC cqe_tap #196] sc_t=5931478346571 ps q=3
[NIC cqe_tap #197] sc_t=5931481922991 ps q=2
[NIC cqe_tap #198] sc_t=5931481922991 ps q=3
[NIC cqe_tap #199] sc_t=5931485499411 ps q=2
[NIC cqe_tap #200] sc_t=5931485499411 ps q=3
[NIC cqe_tap #201] sc_t=5931489075831 ps q=2
[NIC cqe_tap #202] sc_t=5931489075831 ps q=3
[NIC cqe_tap #203] sc_t=5931492652251 ps q=2
[NIC cqe_tap #204] sc_t=5931492652251 ps q=3
[NIC cqe_tap #205] sc_t=5931496228671 ps q=2
[NIC cqe_tap #206] sc_t=5931496228671 ps q=3
[NIC cqe_tap #207] sc_t=5931499805091 ps q=2
[NIC cqe_tap #208] sc_t=5931499805091 ps q=3
[NIC cqe_tap #209] sc_t=5931503381511 ps q=2
[NIC cqe_tap #210] sc_t=5931503381511 ps q=3
[NIC cqe_tap #211] sc_t=5931506957931 ps q=2
[NIC cqe_tap #212] sc_t=5931506957931 ps q=3
[NIC cqe_tap #213] sc_t=5931510534351 ps q=2
[NIC cqe_tap #214] sc_t=5931510534351 ps q=3
[NIC cqe_tap #215] sc_t=5931514110771 ps q=2
[NIC cqe_tap #216] sc_t=5931514110771 ps q=3
[NIC cqe_tap #217] sc_t=5931517687191 ps q=2
[NIC cqe_tap #218] sc_t=5931517687191 ps q=3
[NIC cqe_tap #219] sc_t=5931521263611 ps q=2
[NIC cqe_tap #220] sc_t=5931521263611 ps q=3
[NIC cqe_tap #221] sc_t=5931524840031 ps q=2
[NIC cqe_tap #222] sc_t=5931524840031 ps q=3
[NIC cqe_tap #223] sc_t=5931528416451 ps q=2
[NIC cqe_tap #224] sc_t=5931528416451 ps q=3
[NIC cqe_tap #225] sc_t=5931531992871 ps q=2
[NIC cqe_tap #226] sc_t=5931531992871 ps q=3
[NIC cqe_tap #227] sc_t=5931535569291 ps q=2
[NIC cqe_tap #228] sc_t=5931535569291 ps q=3
[NIC cqe_tap #229] sc_t=5931539145711 ps q=2
[NIC cqe_tap #230] sc_t=5931539145711 ps q=3
[NIC cqe_tap #231] sc_t=5931542722131 ps q=2
[NIC cqe_tap #232] sc_t=5931542722131 ps q=3
[NIC cqe_tap #233] sc_t=5931546298551 ps q=2
[NIC cqe_tap #234] sc_t=5931546298551 ps q=3
[NIC cqe_tap #235] sc_t=5931549874971 ps q=2
[NIC cqe_tap #236] sc_t=5931549874971 ps q=3
[NIC cqe_tap #237] sc_t=5931553451391 ps q=2
[NIC cqe_tap #238] sc_t=5931553451391 ps q=3
[NIC cqe_tap #239] sc_t=5931557027811 ps q=2
[NIC cqe_tap #240] sc_t=5931557027811 ps q=3
[NIC cqe_tap #241] sc_t=5931560604231 ps q=2
[NIC cqe_tap #242] sc_t=5931560604231 ps q=3
[NIC cqe_tap #243] sc_t=5931564180651 ps q=2
[NIC cqe_tap #244] sc_t=5931564180651 ps q=3
[NIC cqe_tap #245] sc_t=5931567757071 ps q=2
[NIC cqe_tap #246] sc_t=5931567757071 ps q=3
[NIC cqe_tap #247] sc_t=5931571333491 ps q=2
[NIC cqe_tap #248] sc_t=5931571333491 ps q=3
[NIC cqe_tap #249] sc_t=5931574909911 ps q=2
[NIC cqe_tap #250] sc_t=5931574909911 ps q=3
[NIC cqe_tap #251] sc_t=5931578486331 ps q=2
[NIC cqe_tap #252] sc_t=5931578486331 ps q=3
[NIC cqe_tap #253] sc_t=5931582062751 ps q=2
[NIC cqe_tap #254] sc_t=5931582062751 ps q=3
[NIC cqe_tap #255] sc_t=5932495928637 ps q=2
[NIC cqe_tap #256] sc_t=5932495928637 ps q=3
[NIC_DECOMP] drains=896 cum_cycles=513 ethdec=384 jsched=129
[NIC cqe_tap #257] sc_t=5932554493014 ps q=2
[NIC cqe_tap #258] sc_t=5932554493014 ps q=3
[NIC cqe_tap #259] sc_t=5932613057391 ps q=2
[NIC cqe_tap #260] sc_t=5932613057391 ps q=3
[NIC cqe_tap #261] sc_t=5932671621768 ps q=2
[NIC cqe_tap #262] sc_t=5932671621768 ps q=3
[NIC cqe_tap #263] sc_t=5932730186145 ps q=2
[NIC cqe_tap #264] sc_t=5932730186145 ps q=3
[NIC cqe_tap #265] sc_t=5932788750522 ps q=2
[NIC cqe_tap #266] sc_t=5932788750522 ps q=3
[NIC cqe_tap #267] sc_t=5932847314899 ps q=2
[NIC cqe_tap #268] sc_t=5932847314899 ps q=3
[NIC cqe_tap #269] sc_t=5932905879276 ps q=2
[NIC cqe_tap #270] sc_t=5932905879276 ps q=3
[NIC cqe_tap #271] sc_t=5932964443653 ps q=2
[NIC cqe_tap #272] sc_t=5932964443653 ps q=3
[NIC cqe_tap #273] sc_t=5933023008030 ps q=2
[NIC cqe_tap #274] sc_t=5933023008030 ps q=3
[NIC_DECOMP] drains=960 cum_cycles=550 ethdec=411 jsched=139
[NIC cqe_tap #275] sc_t=5933081572407 ps q=2
[NIC cqe_tap #276] sc_t=5933081572407 ps q=3
[NIC cqe_tap #277] sc_t=5933140136784 ps q=2
[NIC cqe_tap #278] sc_t=5933140136784 ps q=3
[NIC cqe_tap #279] sc_t=5933198701161 ps q=2
[NIC cqe_tap #280] sc_t=5933198701161 ps q=3
[NIC cqe_tap #281] sc_t=5933257265538 ps q=2
[NIC cqe_tap #282] sc_t=5933257265538 ps q=3
[NIC cqe_tap #283] sc_t=5933315829915 ps q=2
[NIC cqe_tap #284] sc_t=5933315829915 ps q=3
[NIC cqe_tap #285] sc_t=5933374394292 ps q=2
[NIC cqe_tap #286] sc_t=5933374394292 ps q=3
[NIC cqe_tap #287] sc_t=5933432958669 ps q=2
[NIC cqe_tap #288] sc_t=5933432958669 ps q=3
[NIC cqe_tap #289] sc_t=5933491523046 ps q=2
[NIC cqe_tap #290] sc_t=5933491523046 ps q=3
[NIC cqe_tap #291] sc_t=5933550087423 ps q=2
[NIC cqe_tap #292] sc_t=5933550087423 ps q=3
[NIC cqe_tap #293] sc_t=5933608651800 ps q=2
[NIC cqe_tap #294] sc_t=5933608651800 ps q=3
[NIC cqe_tap #295] sc_t=5933667216177 ps q=2
[NIC cqe_tap #296] sc_t=5933667216177 ps q=3
[NIC cqe_tap #297] sc_t=5933725780554 ps q=2
[NIC cqe_tap #298] sc_t=5933725780554 ps q=3
[NIC cqe_tap #299] sc_t=5933784344931 ps q=2
[NIC cqe_tap #300] sc_t=5933784344931 ps q=3
[NIC cqe_tap #301] sc_t=5933842909308 ps q=2
[NIC cqe_tap #302] sc_t=5933842909308 ps q=3
[NIC cqe_tap #303] sc_t=5933901473685 ps q=2
[NIC cqe_tap #304] sc_t=5933901473685 ps q=3
[NIC cqe_tap #305] sc_t=5933960038062 ps q=2
[NIC cqe_tap #306] sc_t=5933960038062 ps q=3
[NIC cqe_tap #307] sc_t=5934018602439 ps q=2
[NIC cqe_tap #308] sc_t=5934018602439 ps q=3
[NIC cqe_tap #309] sc_t=5934077166816 ps q=2
[NIC cqe_tap #310] sc_t=5934077166816 ps q=3
[NIC cqe_tap #311] sc_t=5934135731193 ps q=2
[NIC cqe_tap #312] sc_t=5934135731193 ps q=3
[NIC cqe_tap #313] sc_t=5934194295570 ps q=2
[NIC cqe_tap #314] sc_t=5934194295570 ps q=3
[NIC cqe_tap #315] sc_t=5934252859947 ps q=2
[NIC cqe_tap #316] sc_t=5934252859947 ps q=3
[NIC cqe_tap #317] sc_t=5934311424324 ps q=2
[NIC cqe_tap #318] sc_t=5934311424324 ps q=3
[NIC cqe_tap #319] sc_t=5934369988701 ps q=2
[NIC cqe_tap #320] sc_t=5934369988701 ps q=3
[NIC cqe_tap #321] sc_t=5934428553078 ps q=2
[NIC cqe_tap #322] sc_t=5934428553078 ps q=3
[NIC cqe_tap #323] sc_t=5934487117455 ps q=2
[NIC cqe_tap #324] sc_t=5934487117455 ps q=3
[NIC cqe_tap #325] sc_t=5934545681832 ps q=2
[NIC cqe_tap #326] sc_t=5934545681832 ps q=3
[NIC cqe_tap #327] sc_t=5934604246209 ps q=2
[NIC cqe_tap #328] sc_t=5934604246209 ps q=3
[NIC cqe_tap #329] sc_t=5935296763332 ps q=2
[NIC cqe_tap #330] sc_t=5935296763332 ps q=3
[NIC cqe_tap #331] sc_t=5935355327709 ps q=2
[NIC cqe_tap #332] sc_t=5935355327709 ps q=3
[NIC cqe_tap #333] sc_t=5935413892086 ps q=2
[NIC cqe_tap #334] sc_t=5935413892086 ps q=3
[NIC cqe_tap #335] sc_t=5935472456463 ps q=2
[NIC cqe_tap #336] sc_t=5935472456463 ps q=3
[NIC cqe_tap #337] sc_t=5935531020840 ps q=2
[NIC cqe_tap #338] sc_t=5935531020840 ps q=3
[NIC cqe_tap #339] sc_t=5935589585217 ps q=2
[NIC cqe_tap #340] sc_t=5935589585217 ps q=3
[NIC cqe_tap #341] sc_t=5935648149594 ps q=2
[NIC cqe_tap #342] sc_t=5935648149594 ps q=3
[NIC cqe_tap #343] sc_t=5935706713971 ps q=2
[NIC cqe_tap #344] sc_t=5935706713971 ps q=3
[NIC cqe_tap #345] sc_t=5935765278348 ps q=2
[NIC cqe_tap #346] sc_t=5935765278348 ps q=3
[NIC cqe_tap #347] sc_t=5935823842725 ps q=2
[NIC cqe_tap #348] sc_t=5935823842725 ps q=3
[NIC cqe_tap #349] sc_t=5935882407102 ps q=2
[NIC cqe_tap #350] sc_t=5935882407102 ps q=3
[NIC cqe_tap #351] sc_t=5935940971479 ps q=2
[NIC cqe_tap #352] sc_t=5935940971479 ps q=3
[NIC cqe_tap #353] sc_t=5935999535856 ps q=2
[NIC cqe_tap #354] sc_t=5935999535856 ps q=3
[NIC cqe_tap #355] sc_t=5936058100233 ps q=2
[NIC cqe_tap #356] sc_t=5936058100233 ps q=3
[NIC cqe_tap #357] sc_t=5936116664610 ps q=2
[NIC cqe_tap #358] sc_t=5936116664610 ps q=3
[NIC cqe_tap #359] sc_t=5936175228987 ps q=2
[NIC cqe_tap #360] sc_t=5936175228987 ps q=3
[NIC cqe_tap #361] sc_t=5936233793364 ps q=2
[NIC cqe_tap #362] sc_t=5936233793364 ps q=3
[NIC cqe_tap #363] sc_t=5936292357741 ps q=2
[NIC cqe_tap #364] sc_t=5936292357741 ps q=3
[NIC cqe_tap #365] sc_t=5936350922118 ps q=2
[NIC cqe_tap #366] sc_t=5936350922118 ps q=3
[NIC cqe_tap #367] sc_t=5936409486495 ps q=2
[NIC cqe_tap #368] sc_t=5936409486495 ps q=3
[NIC cqe_tap #369] sc_t=5936468050872 ps q=2
[NIC cqe_tap #370] sc_t=5936468050872 ps q=3
[NIC cqe_tap #371] sc_t=5936526615249 ps q=2
[NIC cqe_tap #372] sc_t=5936526615249 ps q=3
[NIC cqe_tap #373] sc_t=5936585179626 ps q=2
[NIC cqe_tap #374] sc_t=5936585179626 ps q=3
[NIC cqe_tap #375] sc_t=5936643744003 ps q=2
[NIC cqe_tap #376] sc_t=5936643744003 ps q=3
[NIC cqe_tap #377] sc_t=5936702308380 ps q=2
[NIC cqe_tap #378] sc_t=5936702308380 ps q=3
[NIC cqe_tap #379] sc_t=5936760872757 ps q=2
[NIC cqe_tap #380] sc_t=5936760872757 ps q=3
[NIC cqe_tap #381] sc_t=5936819437134 ps q=2
[NIC cqe_tap #382] sc_t=5936819437134 ps q=3
[NIC cqe_tap #383] sc_t=5937645715695 ps q=2
[NIC cqe_tap #384] sc_t=5937645715695 ps q=3
[NIC_DECOMP] drains=1344 cum_cycles=769 ethdec=576 jsched=193
[NIC cqe_tap #385] sc_t=5937781843764 ps q=2
[NIC cqe_tap #386] sc_t=5937781843764 ps q=3
[NIC cqe_tap #387] sc_t=5937917971833 ps q=2
[NIC cqe_tap #388] sc_t=5937917971833 ps q=3
[NIC cqe_tap #389] sc_t=5938054099902 ps q=2
[NIC cqe_tap #390] sc_t=5938054099902 ps q=3
[NIC cqe_tap #391] sc_t=5938190227971 ps q=2
[NIC cqe_tap #392] sc_t=5938190227971 ps q=3
[NIC cqe_tap #393] sc_t=5938326356040 ps q=2
[NIC cqe_tap #394] sc_t=5938326356040 ps q=3
[NIC cqe_tap #395] sc_t=5938462484109 ps q=2
[NIC cqe_tap #396] sc_t=5938462484109 ps q=3
[NIC cqe_tap #397] sc_t=5938598612178 ps q=2
[NIC cqe_tap #398] sc_t=5938598612178 ps q=3
[NIC cqe_tap #399] sc_t=5938734740247 ps q=2
[NIC cqe_tap #400] sc_t=5938734740247 ps q=3
[NIC cqe_tap #401] sc_t=5939493239988 ps q=2
[NIC cqe_tap #402] sc_t=5939493239988 ps q=3
[NIC_DECOMP] drains=1408 cum_cycles=806 ethdec=603 jsched=203
[NIC cqe_tap #403] sc_t=5939629368057 ps q=2
[NIC cqe_tap #404] sc_t=5939629368057 ps q=3
[NIC cqe_tap #405] sc_t=5939765496126 ps q=2
[NIC cqe_tap #406] sc_t=5939765496126 ps q=3
[NIC cqe_tap #407] sc_t=5939901624195 ps q=2
[NIC cqe_tap #408] sc_t=5939901624195 ps q=3
[NIC cqe_tap #409] sc_t=5940037752264 ps q=2
[NIC cqe_tap #410] sc_t=5940037752264 ps q=3
[NIC cqe_tap #411] sc_t=5940173880333 ps q=2
[NIC cqe_tap #412] sc_t=5940173880333 ps q=3
[NIC cqe_tap #413] sc_t=5940310008402 ps q=2
[NIC cqe_tap #414] sc_t=5940310008402 ps q=3
[NIC cqe_tap #415] sc_t=5940446136471 ps q=2
[NIC cqe_tap #416] sc_t=5940446136471 ps q=3
[NIC cqe_tap #417] sc_t=5940582264540 ps q=2
[NIC cqe_tap #418] sc_t=5940582264540 ps q=3
[NIC cqe_tap #419] sc_t=5940718392609 ps q=2
[NIC cqe_tap #420] sc_t=5940718392609 ps q=3
[NIC cqe_tap #421] sc_t=5940854520678 ps q=2
[NIC cqe_tap #422] sc_t=5940854520678 ps q=3
[NIC cqe_tap #423] sc_t=5940990648747 ps q=2
[NIC cqe_tap #424] sc_t=5940990648747 ps q=3
[NIC cqe_tap #425] sc_t=5941126776816 ps q=2
[NIC cqe_tap #426] sc_t=5941126776816 ps q=3
[NIC cqe_tap #427] sc_t=5941262904885 ps q=2
[NIC cqe_tap #428] sc_t=5941262904885 ps q=3
[NIC cqe_tap #429] sc_t=5941399032954 ps q=2
[NIC cqe_tap #430] sc_t=5941399032954 ps q=3
[NIC cqe_tap #431] sc_t=5941535161023 ps q=2
[NIC cqe_tap #432] sc_t=5941535161023 ps q=3
[NIC cqe_tap #433] sc_t=5941671289092 ps q=2
[NIC cqe_tap #434] sc_t=5941671289092 ps q=3
[NIC cqe_tap #435] sc_t=5941807417161 ps q=2
[NIC cqe_tap #436] sc_t=5941807417161 ps q=3
[NIC cqe_tap #437] sc_t=5941943545230 ps q=2
[NIC cqe_tap #438] sc_t=5941943545230 ps q=3
[NIC cqe_tap #439] sc_t=5942079673299 ps q=2
[NIC cqe_tap #440] sc_t=5942079673299 ps q=3
[NIC cqe_tap #441] sc_t=5942215801368 ps q=2
[NIC cqe_tap #442] sc_t=5942215801368 ps q=3
[NIC cqe_tap #443] sc_t=5942351929437 ps q=2
[NIC cqe_tap #444] sc_t=5942351929437 ps q=3
[NIC cqe_tap #445] sc_t=5942488057506 ps q=2
[NIC cqe_tap #446] sc_t=5942488057506 ps q=3
[NIC cqe_tap #447] sc_t=5942624185575 ps q=2
[NIC cqe_tap #448] sc_t=5942624185575 ps q=3
[NIC cqe_tap #449] sc_t=5942760313644 ps q=2
[NIC cqe_tap #450] sc_t=5942760313644 ps q=3
[NIC cqe_tap #451] sc_t=5942896441713 ps q=2
[NIC cqe_tap #452] sc_t=5942896441713 ps q=3
[NIC cqe_tap #453] sc_t=5943640687056 ps q=2
[NIC cqe_tap #454] sc_t=5943640687056 ps q=3
[NIC cqe_tap #455] sc_t=5943776815125 ps q=2
[NIC cqe_tap #456] sc_t=5943776815125 ps q=3
[NIC cqe_tap #457] sc_t=5943912943194 ps q=2
[NIC cqe_tap #458] sc_t=5943912943194 ps q=3
[NIC cqe_tap #459] sc_t=5944049071263 ps q=2
[NIC cqe_tap #460] sc_t=5944049071263 ps q=3
[NIC cqe_tap #461] sc_t=5944185199332 ps q=2
[NIC cqe_tap #462] sc_t=5944185199332 ps q=3
[NIC cqe_tap #463] sc_t=5944321327401 ps q=2
[NIC cqe_tap #464] sc_t=5944321327401 ps q=3
[NIC cqe_tap #465] sc_t=5944457455470 ps q=2
[NIC cqe_tap #466] sc_t=5944457455470 ps q=3
[NIC cqe_tap #467] sc_t=5944593583539 ps q=2
[NIC cqe_tap #468] sc_t=5944593583539 ps q=3
[NIC cqe_tap #469] sc_t=5944729711608 ps q=2
[NIC cqe_tap #470] sc_t=5944729711608 ps q=3
[NIC cqe_tap #471] sc_t=5944865839677 ps q=2
[NIC cqe_tap #472] sc_t=5944865839677 ps q=3
[NIC cqe_tap #473] sc_t=5945001967746 ps q=2
[NIC cqe_tap #474] sc_t=5945001967746 ps q=3
[NIC cqe_tap #475] sc_t=5945138095815 ps q=2
[NIC cqe_tap #476] sc_t=5945138095815 ps q=3
[NIC cqe_tap #477] sc_t=5945274223884 ps q=2
[NIC cqe_tap #478] sc_t=5945274223884 ps q=3
[NIC cqe_tap #479] sc_t=5945410351953 ps q=2
[NIC cqe_tap #480] sc_t=5945410351953 ps q=3
[NIC cqe_tap #481] sc_t=5945546480022 ps q=2
[NIC cqe_tap #482] sc_t=5945546480022 ps q=3
[NIC cqe_tap #483] sc_t=5945682608091 ps q=2
[NIC cqe_tap #484] sc_t=5945682608091 ps q=3
[NIC cqe_tap #485] sc_t=5945818736160 ps q=2
[NIC cqe_tap #486] sc_t=5945818736160 ps q=3
[NIC cqe_tap #487] sc_t=5945954864229 ps q=2
[NIC cqe_tap #488] sc_t=5945954864229 ps q=3
[NIC cqe_tap #489] sc_t=5946090992298 ps q=2
[NIC cqe_tap #490] sc_t=5946090992298 ps q=3
[NIC cqe_tap #491] sc_t=5946227120367 ps q=2
[NIC cqe_tap #492] sc_t=5946227120367 ps q=3
[NIC cqe_tap #493] sc_t=5946363248436 ps q=2
[NIC cqe_tap #494] sc_t=5946363248436 ps q=3
[NIC cqe_tap #495] sc_t=5946499376505 ps q=2
[NIC cqe_tap #496] sc_t=5946499376505 ps q=3
[NIC cqe_tap #497] sc_t=5946635504574 ps q=2
[NIC cqe_tap #498] sc_t=5946635504574 ps q=3
[NIC cqe_tap #499] sc_t=5946771632643 ps q=2
[NIC cqe_tap #500] sc_t=5946771632643 ps q=3
[NIC cqe_tap #501] sc_t=5946907760712 ps q=2
[NIC cqe_tap #502] sc_t=5946907760712 ps q=3
[NIC cqe_tap #503] sc_t=5947043888781 ps q=2
[NIC cqe_tap #504] sc_t=5947043888781 ps q=3
[NIC cqe_tap #505] sc_t=5947712782884 ps q=2
[NIC cqe_tap #506] sc_t=5947712782884 ps q=3
[NIC cqe_tap #507] sc_t=5947848910953 ps q=2
[NIC cqe_tap #508] sc_t=5947848910953 ps q=3
[NIC cqe_tap #509] sc_t=5947985039022 ps q=2
[NIC cqe_tap #510] sc_t=5947985039022 ps q=3
[NIC cqe_tap #511] sc_t=5948956135620 ps q=2
[NIC cqe_tap #512] sc_t=5948956135620 ps q=3
[NIC_DECOMP] drains=1792 cum_cycles=1025 ethdec=768 jsched=257
[NIC cqe_tap #513] sc_t=5948959959792 ps q=2
[NIC cqe_tap #514] sc_t=5948959959792 ps q=3
[NIC cqe_tap #515] sc_t=5948963783964 ps q=2
[NIC cqe_tap #516] sc_t=5948963783964 ps q=3
[NIC cqe_tap #517] sc_t=5948967608136 ps q=2
[NIC cqe_tap #518] sc_t=5948967608136 ps q=3
[NIC cqe_tap #519] sc_t=5948971432308 ps q=2
[NIC cqe_tap #520] sc_t=5948971432308 ps q=3
[NIC cqe_tap #521] sc_t=5948975256480 ps q=2
[NIC cqe_tap #522] sc_t=5948975256480 ps q=3
[NIC cqe_tap #523] sc_t=5948979080652 ps q=2
[NIC cqe_tap #524] sc_t=5948979080652 ps q=3
[NIC cqe_tap #525] sc_t=5948982904824 ps q=2
[NIC cqe_tap #526] sc_t=5948982904824 ps q=3
[NIC cqe_tap #527] sc_t=5948986728996 ps q=2
[NIC cqe_tap #528] sc_t=5948986728996 ps q=3
[NIC cqe_tap #529] sc_t=5948990553168 ps q=2
[NIC cqe_tap #530] sc_t=5948990553168 ps q=3
[NIC_DECOMP] drains=1856 cum_cycles=1062 ethdec=795 jsched=267
[NIC cqe_tap #531] sc_t=5948994377340 ps q=2
[NIC cqe_tap #532] sc_t=5948994377340 ps q=3
[NIC cqe_tap #533] sc_t=5948998201512 ps q=2
[NIC cqe_tap #534] sc_t=5948998201512 ps q=3
[NIC cqe_tap #535] sc_t=5949002025684 ps q=2
[NIC cqe_tap #536] sc_t=5949002025684 ps q=3
[NIC cqe_tap #537] sc_t=5949005849856 ps q=2
[NIC cqe_tap #538] sc_t=5949005849856 ps q=3
[NIC cqe_tap #539] sc_t=5949009674028 ps q=2
[NIC cqe_tap #540] sc_t=5949009674028 ps q=3
[NIC cqe_tap #541] sc_t=5949013498200 ps q=2
[NIC cqe_tap #542] sc_t=5949013498200 ps q=3
[NIC cqe_tap #543] sc_t=5949928779336 ps q=2
[NIC cqe_tap #544] sc_t=5949928779336 ps q=3
[NIC cqe_tap #545] sc_t=5949987426297 ps q=2
[NIC cqe_tap #546] sc_t=5949987426297 ps q=3
[NIC cqe_tap #547] sc_t=5950046073258 ps q=2
[NIC cqe_tap #548] sc_t=5950046073258 ps q=3
[NIC cqe_tap #549] sc_t=5950104720219 ps q=2
[NIC cqe_tap #550] sc_t=5950104720219 ps q=3
[NIC cqe_tap #551] sc_t=5950163367180 ps q=2
[NIC cqe_tap #552] sc_t=5950163367180 ps q=3
[NIC cqe_tap #553] sc_t=5950222014141 ps q=2
[NIC cqe_tap #554] sc_t=5950222014141 ps q=3
[NIC cqe_tap #555] sc_t=5950280661102 ps q=2
[NIC cqe_tap #556] sc_t=5950280661102 ps q=3
[NIC cqe_tap #557] sc_t=5950339308063 ps q=2
[NIC cqe_tap #558] sc_t=5950339308063 ps q=3
[NIC cqe_tap #559] sc_t=5950397955024 ps q=2
[NIC cqe_tap #560] sc_t=5950397955024 ps q=3
[NIC cqe_tap #561] sc_t=5950456601985 ps q=2
[NIC cqe_tap #562] sc_t=5950456601985 ps q=3
[NIC cqe_tap #563] sc_t=5950515248946 ps q=2
[NIC cqe_tap #564] sc_t=5950515248946 ps q=3
[NIC cqe_tap #565] sc_t=5950573895907 ps q=2
[NIC cqe_tap #566] sc_t=5950573895907 ps q=3
[NIC cqe_tap #567] sc_t=5950632542868 ps q=2
[NIC cqe_tap #568] sc_t=5950632542868 ps q=3
[NIC cqe_tap #569] sc_t=5950691189829 ps q=2
[NIC cqe_tap #570] sc_t=5950691189829 ps q=3
[NIC cqe_tap #571] sc_t=5950749836790 ps q=2
[NIC cqe_tap #572] sc_t=5950749836790 ps q=3
[NIC cqe_tap #573] sc_t=5950808483751 ps q=2
[NIC cqe_tap #574] sc_t=5950808483751 ps q=3
[NIC cqe_tap #575] sc_t=5952230701776 ps q=2
[NIC cqe_tap #576] sc_t=5952230701776 ps q=3
[NIC cqe_tap #577] sc_t=5952234525948 ps q=2
[NIC cqe_tap #578] sc_t=5952234525948 ps q=3
[NIC cqe_tap #579] sc_t=5952238350120 ps q=2
[NIC cqe_tap #580] sc_t=5952238350120 ps q=3
[NIC cqe_tap #581] sc_t=5952242174292 ps q=2
[NIC cqe_tap #582] sc_t=5952242174292 ps q=3
[NIC cqe_tap #583] sc_t=5952245998464 ps q=2
[NIC cqe_tap #584] sc_t=5952245998464 ps q=3
[NIC cqe_tap #585] sc_t=5952249822636 ps q=2
[NIC cqe_tap #586] sc_t=5952249822636 ps q=3
[NIC cqe_tap #587] sc_t=5952253646808 ps q=2
[NIC cqe_tap #588] sc_t=5952253646808 ps q=3
[NIC cqe_tap #589] sc_t=5952257470980 ps q=2
[NIC cqe_tap #590] sc_t=5952257470980 ps q=3
[NIC cqe_tap #591] sc_t=5952261295152 ps q=2
[NIC cqe_tap #592] sc_t=5952261295152 ps q=3
[NIC cqe_tap #593] sc_t=5952265119324 ps q=2
[NIC cqe_tap #594] sc_t=5952265119324 ps q=3
[NIC cqe_tap #595] sc_t=5952268943496 ps q=2
[NIC cqe_tap #596] sc_t=5952268943496 ps q=3
[NIC cqe_tap #597] sc_t=5952272767668 ps q=2
[NIC cqe_tap #598] sc_t=5952272767668 ps q=3
[NIC cqe_tap #599] sc_t=5952276591840 ps q=2
[NIC cqe_tap #600] sc_t=5952276591840 ps q=3
[NIC cqe_tap #601] sc_t=5952280416012 ps q=2
[NIC cqe_tap #602] sc_t=5952280416012 ps q=3
[NIC cqe_tap #603] sc_t=5952284240184 ps q=2
[NIC cqe_tap #604] sc_t=5952284240184 ps q=3
[NIC cqe_tap #605] sc_t=5952288064356 ps q=2
[NIC cqe_tap #606] sc_t=5952288064356 ps q=3
[NIC cqe_tap #607] sc_t=5953207445721 ps q=2
[NIC cqe_tap #608] sc_t=5953207445721 ps q=3
[NIC cqe_tap #609] sc_t=5953266092682 ps q=2
[NIC cqe_tap #610] sc_t=5953266092682 ps q=3
[NIC cqe_tap #611] sc_t=5953324739643 ps q=2
[NIC cqe_tap #612] sc_t=5953324739643 ps q=3
[NIC cqe_tap #613] sc_t=5953383386604 ps q=2
[NIC cqe_tap #614] sc_t=5953383386604 ps q=3
[NIC cqe_tap #615] sc_t=5953442033565 ps q=2
[NIC cqe_tap #616] sc_t=5953442033565 ps q=3
[NIC cqe_tap #617] sc_t=5953500680526 ps q=2
[NIC cqe_tap #618] sc_t=5953500680526 ps q=3
[NIC cqe_tap #619] sc_t=5953559327487 ps q=2
[NIC cqe_tap #620] sc_t=5953559327487 ps q=3
[NIC cqe_tap #621] sc_t=5953617974448 ps q=2
[NIC cqe_tap #622] sc_t=5953617974448 ps q=3
[NIC cqe_tap #623] sc_t=5953676621409 ps q=2
[NIC cqe_tap #624] sc_t=5953676621409 ps q=3
[NIC cqe_tap #625] sc_t=5953735268370 ps q=2
[NIC cqe_tap #626] sc_t=5953735268370 ps q=3
[NIC cqe_tap #627] sc_t=5953793915331 ps q=2
[NIC cqe_tap #628] sc_t=5953793915331 ps q=3
[NIC cqe_tap #629] sc_t=5953852562292 ps q=2
[NIC cqe_tap #630] sc_t=5953852562292 ps q=3
[NIC cqe_tap #631] sc_t=5953911209253 ps q=2
[NIC cqe_tap #632] sc_t=5953911209253 ps q=3
[NIC cqe_tap #633] sc_t=5953969856214 ps q=2
[NIC cqe_tap #634] sc_t=5953969856214 ps q=3
[NIC cqe_tap #635] sc_t=5954028503175 ps q=2
[NIC cqe_tap #636] sc_t=5954028503175 ps q=3
[NIC cqe_tap #637] sc_t=5954087150136 ps q=2
[NIC cqe_tap #638] sc_t=5954087150136 ps q=3
[NIC cqe_tap #639] sc_t=5954988422961 ps q=2
[NIC cqe_tap #640] sc_t=5954988422961 ps q=3
[NIC_DECOMP] drains=2240 cum_cycles=1281 ethdec=960 jsched=321
[NIC cqe_tap #641] sc_t=5954992247133 ps q=2
[NIC cqe_tap #642] sc_t=5954992247133 ps q=3
[NIC cqe_tap #643] sc_t=5954996071305 ps q=2
[NIC cqe_tap #644] sc_t=5954996071305 ps q=3
[NIC cqe_tap #645] sc_t=5954999895477 ps q=2
[NIC cqe_tap #646] sc_t=5954999895477 ps q=3
[NIC cqe_tap #647] sc_t=5955003719649 ps q=2
[NIC cqe_tap #648] sc_t=5955003719649 ps q=3
[NIC cqe_tap #649] sc_t=5955007543821 ps q=2
[NIC cqe_tap #650] sc_t=5955007543821 ps q=3
[NIC cqe_tap #651] sc_t=5955011367993 ps q=2
[NIC cqe_tap #652] sc_t=5955011367993 ps q=3
[NIC cqe_tap #653] sc_t=5955015192165 ps q=2
[NIC cqe_tap #654] sc_t=5955015192165 ps q=3
[NIC cqe_tap #655] sc_t=5955019016337 ps q=2
[NIC cqe_tap #656] sc_t=5955019016337 ps q=3
[NIC cqe_tap #657] sc_t=5955022840509 ps q=2
[NIC cqe_tap #658] sc_t=5955022840509 ps q=3
[NIC_DECOMP] drains=2304 cum_cycles=1318 ethdec=987 jsched=331
[NIC cqe_tap #659] sc_t=5955026664681 ps q=2
[NIC cqe_tap #660] sc_t=5955026664681 ps q=3
[NIC cqe_tap #661] sc_t=5955030488853 ps q=2
[NIC cqe_tap #662] sc_t=5955030488853 ps q=3
[NIC cqe_tap #663] sc_t=5955034313025 ps q=2
[NIC cqe_tap #664] sc_t=5955034313025 ps q=3
[NIC cqe_tap #665] sc_t=5955038137197 ps q=2
[NIC cqe_tap #666] sc_t=5955038137197 ps q=3
[NIC cqe_tap #667] sc_t=5955041961369 ps q=2
[NIC cqe_tap #668] sc_t=5955041961369 ps q=3
[NIC cqe_tap #669] sc_t=5955045785541 ps q=2
[NIC cqe_tap #670] sc_t=5955045785541 ps q=3
[NIC cqe_tap #671] sc_t=5956570359441 ps q=2
[NIC cqe_tap #672] sc_t=5956570359441 ps q=3
[NIC cqe_tap #673] sc_t=5956629006402 ps q=2
[NIC cqe_tap #674] sc_t=5956629006402 ps q=3
[NIC cqe_tap #675] sc_t=5956687653363 ps q=2
[NIC cqe_tap #676] sc_t=5956687653363 ps q=3
[NIC cqe_tap #677] sc_t=5956746300324 ps q=2
[NIC cqe_tap #678] sc_t=5956746300324 ps q=3
[NIC cqe_tap #679] sc_t=5956804947285 ps q=2
[NIC cqe_tap #680] sc_t=5956804947285 ps q=3
[NIC cqe_tap #681] sc_t=5956863594246 ps q=2
[NIC cqe_tap #682] sc_t=5956863594246 ps q=3
[NIC cqe_tap #683] sc_t=5956922241207 ps q=2
[NIC cqe_tap #684] sc_t=5956922241207 ps q=3
[NIC cqe_tap #685] sc_t=5956980888168 ps q=2
[NIC cqe_tap #686] sc_t=5956980888168 ps q=3
[NIC cqe_tap #687] sc_t=5957039535129 ps q=2
[NIC cqe_tap #688] sc_t=5957039535129 ps q=3
[NIC cqe_tap #689] sc_t=5957098182090 ps q=2
[NIC cqe_tap #690] sc_t=5957098182090 ps q=3
[NIC cqe_tap #691] sc_t=5957156829051 ps q=2
[NIC cqe_tap #692] sc_t=5957156829051 ps q=3
[NIC cqe_tap #693] sc_t=5957215476012 ps q=2
[NIC cqe_tap #694] sc_t=5957215476012 ps q=3
[NIC cqe_tap #695] sc_t=5957274122973 ps q=2
[NIC cqe_tap #696] sc_t=5957274122973 ps q=3
[NIC cqe_tap #697] sc_t=5957332769934 ps q=2
[NIC cqe_tap #698] sc_t=5957332769934 ps q=3
[NIC cqe_tap #699] sc_t=5957391416895 ps q=2
[NIC cqe_tap #700] sc_t=5957391416895 ps q=3
[NIC cqe_tap #701] sc_t=5957450063856 ps q=2
[NIC cqe_tap #702] sc_t=5957450063856 ps q=3
[NIC cqe_tap #703] sc_t=5958355395951 ps q=2
[NIC cqe_tap #704] sc_t=5958355395951 ps q=3
[NIC cqe_tap #705] sc_t=5958359220123 ps q=2
[NIC cqe_tap #706] sc_t=5958359220123 ps q=3
[NIC cqe_tap #707] sc_t=5958363044295 ps q=2
[NIC cqe_tap #708] sc_t=5958363044295 ps q=3
[NIC cqe_tap #709] sc_t=5958366868467 ps q=2
[NIC cqe_tap #710] sc_t=5958366868467 ps q=3
[NIC cqe_tap #711] sc_t=5958370692639 ps q=2
[NIC cqe_tap #712] sc_t=5958370692639 ps q=3
[NIC cqe_tap #713] sc_t=5958374516811 ps q=2
[NIC cqe_tap #714] sc_t=5958374516811 ps q=3
[NIC cqe_tap #715] sc_t=5958378340983 ps q=2
[NIC cqe_tap #716] sc_t=5958378340983 ps q=3
[NIC cqe_tap #717] sc_t=5958382165155 ps q=2
[NIC cqe_tap #718] sc_t=5958382165155 ps q=3
[NIC cqe_tap #719] sc_t=5958385989327 ps q=2
[NIC cqe_tap #720] sc_t=5958385989327 ps q=3
[NIC cqe_tap #721] sc_t=5958389813499 ps q=2
[NIC cqe_tap #722] sc_t=5958389813499 ps q=3
[NIC cqe_tap #723] sc_t=5958393637671 ps q=2
[NIC cqe_tap #724] sc_t=5958393637671 ps q=3
[NIC cqe_tap #725] sc_t=5958397461843 ps q=2
[NIC cqe_tap #726] sc_t=5958397461843 ps q=3
[NIC cqe_tap #727] sc_t=5958401286015 ps q=2
[NIC cqe_tap #728] sc_t=5958401286015 ps q=3
[NIC cqe_tap #729] sc_t=5958405110187 ps q=2
[NIC cqe_tap #730] sc_t=5958405110187 ps q=3
[NIC cqe_tap #731] sc_t=5958408934359 ps q=2
[NIC cqe_tap #732] sc_t=5958408934359 ps q=3
[NIC cqe_tap #733] sc_t=5958412758531 ps q=2
[NIC cqe_tap #734] sc_t=5958412758531 ps q=3
[NIC cqe_tap #735] sc_t=5959339802892 ps q=2
[NIC cqe_tap #736] sc_t=5959339802892 ps q=3
[NIC cqe_tap #737] sc_t=5959398449853 ps q=2
[NIC cqe_tap #738] sc_t=5959398449853 ps q=3
[NIC cqe_tap #739] sc_t=5959457096814 ps q=2
[NIC cqe_tap #740] sc_t=5959457096814 ps q=3
[NIC cqe_tap #741] sc_t=5959515743775 ps q=2
[NIC cqe_tap #742] sc_t=5959515743775 ps q=3
[NIC cqe_tap #743] sc_t=5960209042116 ps q=2
[NIC cqe_tap #744] sc_t=5960209042116 ps q=3
[NIC cqe_tap #745] sc_t=5960267689077 ps q=2
[NIC cqe_tap #746] sc_t=5960267689077 ps q=3
[NIC cqe_tap #747] sc_t=5960326336038 ps q=2
[NIC cqe_tap #748] sc_t=5960326336038 ps q=3
[NIC cqe_tap #749] sc_t=5960384982999 ps q=2
[NIC cqe_tap #750] sc_t=5960384982999 ps q=3
[NIC cqe_tap #751] sc_t=5960443629960 ps q=2
[NIC cqe_tap #752] sc_t=5960443629960 ps q=3
[NIC cqe_tap #753] sc_t=5960502276921 ps q=2
[NIC cqe_tap #754] sc_t=5960502276921 ps q=3
[NIC cqe_tap #755] sc_t=5960560923882 ps q=2
[NIC cqe_tap #756] sc_t=5960560923882 ps q=3
[NIC cqe_tap #757] sc_t=5960619570843 ps q=2
[NIC cqe_tap #758] sc_t=5960619570843 ps q=3
[NIC cqe_tap #759] sc_t=5960678217804 ps q=2
[NIC cqe_tap #760] sc_t=5960678217804 ps q=3
[NIC cqe_tap #761] sc_t=5960736864765 ps q=2
[NIC cqe_tap #762] sc_t=5960736864765 ps q=3
[NIC cqe_tap #763] sc_t=5960795511726 ps q=2
[NIC cqe_tap #764] sc_t=5960795511726 ps q=3
[NIC cqe_tap #765] sc_t=5960854158687 ps q=2
[NIC cqe_tap #766] sc_t=5960854158687 ps q=3
[NIC cqe_tap #767] sc_t=5961766988943 ps q=2
[NIC cqe_tap #768] sc_t=5961766988943 ps q=3
[NIC_DECOMP] drains=2688 cum_cycles=1537 ethdec=1152 jsched=385
[NIC cqe_tap #769] sc_t=5961770813115 ps q=2
[NIC cqe_tap #770] sc_t=5961770813115 ps q=3
[NIC cqe_tap #771] sc_t=5961774637287 ps q=2
[NIC cqe_tap #772] sc_t=5961774637287 ps q=3
[NIC cqe_tap #773] sc_t=5961778461459 ps q=2
[NIC cqe_tap #774] sc_t=5961778461459 ps q=3
[NIC cqe_tap #775] sc_t=5961782285631 ps q=2
[NIC cqe_tap #776] sc_t=5961782285631 ps q=3
[NIC cqe_tap #777] sc_t=5961786109803 ps q=2
[NIC cqe_tap #778] sc_t=5961786109803 ps q=3
[NIC cqe_tap #779] sc_t=5961789933975 ps q=2
[NIC cqe_tap #780] sc_t=5961789933975 ps q=3
[NIC cqe_tap #781] sc_t=5961793758147 ps q=2
[NIC cqe_tap #782] sc_t=5961793758147 ps q=3
[NIC cqe_tap #783] sc_t=5961797582319 ps q=2
[NIC cqe_tap #784] sc_t=5961797582319 ps q=3
[NIC cqe_tap #785] sc_t=5961801406491 ps q=2
[NIC cqe_tap #786] sc_t=5961801406491 ps q=3
[NIC_DECOMP] drains=2752 cum_cycles=1574 ethdec=1179 jsched=395
[NIC cqe_tap #787] sc_t=5961805230663 ps q=2
[NIC cqe_tap #788] sc_t=5961805230663 ps q=3
[NIC cqe_tap #789] sc_t=5961809054835 ps q=2
[NIC cqe_tap #790] sc_t=5961809054835 ps q=3
[NIC cqe_tap #791] sc_t=5961812879007 ps q=2
[NIC cqe_tap #792] sc_t=5961812879007 ps q=3
[NIC cqe_tap #793] sc_t=5961816703179 ps q=2
[NIC cqe_tap #794] sc_t=5961816703179 ps q=3
[NIC cqe_tap #795] sc_t=5961820527351 ps q=2
[NIC cqe_tap #796] sc_t=5961820527351 ps q=3
[NIC cqe_tap #797] sc_t=5961824351523 ps q=2
[NIC cqe_tap #798] sc_t=5961824351523 ps q=3
[NIC cqe_tap #799] sc_t=5962751395884 ps q=2
[NIC cqe_tap #800] sc_t=5962751395884 ps q=3
[NIC cqe_tap #801] sc_t=5962810042845 ps q=2
[NIC cqe_tap #802] sc_t=5962810042845 ps q=3
[NIC cqe_tap #803] sc_t=5962868689806 ps q=2
[NIC cqe_tap #804] sc_t=5962868689806 ps q=3
[NIC cqe_tap #805] sc_t=5962927336767 ps q=2
[NIC cqe_tap #806] sc_t=5962927336767 ps q=3
[NIC cqe_tap #807] sc_t=5962985983728 ps q=2
[NIC cqe_tap #808] sc_t=5962985983728 ps q=3
[NIC cqe_tap #809] sc_t=5963044630689 ps q=2
[NIC cqe_tap #810] sc_t=5963044630689 ps q=3
[NIC cqe_tap #811] sc_t=5963103277650 ps q=2
[NIC cqe_tap #812] sc_t=5963103277650 ps q=3
[NIC cqe_tap #813] sc_t=5963161924611 ps q=2
[NIC cqe_tap #814] sc_t=5963161924611 ps q=3
[NIC cqe_tap #815] sc_t=5963220571572 ps q=2
[NIC cqe_tap #816] sc_t=5963220571572 ps q=3
[NIC cqe_tap #817] sc_t=5963279218533 ps q=2
[NIC cqe_tap #818] sc_t=5963279218533 ps q=3
[NIC cqe_tap #819] sc_t=5963337865494 ps q=2
[NIC cqe_tap #820] sc_t=5963337865494 ps q=3
[NIC cqe_tap #821] sc_t=5963396512455 ps q=2
[NIC cqe_tap #822] sc_t=5963396512455 ps q=3
[NIC cqe_tap #823] sc_t=5963455159416 ps q=2
[NIC cqe_tap #824] sc_t=5963455159416 ps q=3
[NIC cqe_tap #825] sc_t=5963513806377 ps q=2
[NIC cqe_tap #826] sc_t=5963513806377 ps q=3
[NIC cqe_tap #827] sc_t=5963572453338 ps q=2
[NIC cqe_tap #828] sc_t=5963572453338 ps q=3
[NIC cqe_tap #829] sc_t=5963631100299 ps q=2
[NIC cqe_tap #830] sc_t=5963631100299 ps q=3
[NIC cqe_tap #831] sc_t=5969760616647 ps q=2
[NIC cqe_tap #832] sc_t=5969760616647 ps q=3
[NIC cqe_tap #833] sc_t=5969763697563 ps q=2
[NIC cqe_tap #834] sc_t=5969763697563 ps q=3
[NIC cqe_tap #835] sc_t=5969766778479 ps q=2
[NIC cqe_tap #836] sc_t=5969766778479 ps q=3
[NIC cqe_tap #837] sc_t=5969769859395 ps q=2
[NIC cqe_tap #838] sc_t=5969769859395 ps q=3
[NIC cqe_tap #839] sc_t=5969772940311 ps q=2
[NIC cqe_tap #840] sc_t=5969772940311 ps q=3
[NIC cqe_tap #841] sc_t=5969776021227 ps q=2
[NIC cqe_tap #842] sc_t=5969776021227 ps q=3
[NIC cqe_tap #843] sc_t=5969779102143 ps q=2
[NIC cqe_tap #844] sc_t=5969779102143 ps q=3
[NIC cqe_tap #845] sc_t=5969782183059 ps q=2
[NIC cqe_tap #846] sc_t=5969782183059 ps q=3
[NIC cqe_tap #847] sc_t=5969785263975 ps q=2
[NIC cqe_tap #848] sc_t=5969785263975 ps q=3
[NIC cqe_tap #849] sc_t=5969788344891 ps q=2
[NIC cqe_tap #850] sc_t=5969788344891 ps q=3
[NIC cqe_tap #851] sc_t=5969791425807 ps q=2
[NIC cqe_tap #852] sc_t=5969791425807 ps q=3
[NIC cqe_tap #853] sc_t=5969794506723 ps q=2
[NIC cqe_tap #854] sc_t=5969794506723 ps q=3
[NIC cqe_tap #855] sc_t=5969797587639 ps q=2
[NIC cqe_tap #856] sc_t=5969797587639 ps q=3
[NIC cqe_tap #857] sc_t=5969800668555 ps q=2
[NIC cqe_tap #858] sc_t=5969800668555 ps q=3
[NIC cqe_tap #859] sc_t=5969803749471 ps q=2
[NIC cqe_tap #860] sc_t=5969803749471 ps q=3
[NIC cqe_tap #861] sc_t=5969806830387 ps q=2
[NIC cqe_tap #862] sc_t=5969806830387 ps q=3
[NIC cqe_tap #863] sc_t=5969809911303 ps q=2
[NIC cqe_tap #864] sc_t=5969809911303 ps q=3
[NIC cqe_tap #865] sc_t=5969812992219 ps q=2
[NIC cqe_tap #866] sc_t=5969812992219 ps q=3
[NIC cqe_tap #867] sc_t=5969816073135 ps q=2
[NIC cqe_tap #868] sc_t=5969816073135 ps q=3
[NIC cqe_tap #869] sc_t=5969819154051 ps q=2
[NIC cqe_tap #870] sc_t=5969819154051 ps q=3
[NIC cqe_tap #871] sc_t=5969822234967 ps q=2
[NIC cqe_tap #872] sc_t=5969822234967 ps q=3
[NIC cqe_tap #873] sc_t=5969825315883 ps q=2
[NIC cqe_tap #874] sc_t=5969825315883 ps q=3
[NIC cqe_tap #875] sc_t=5969828396799 ps q=2
[NIC cqe_tap #876] sc_t=5969828396799 ps q=3
[NIC cqe_tap #877] sc_t=5969831477715 ps q=2
[NIC cqe_tap #878] sc_t=5969831477715 ps q=3
[NIC cqe_tap #879] sc_t=5969834558631 ps q=2
[NIC cqe_tap #880] sc_t=5969834558631 ps q=3
[NIC cqe_tap #881] sc_t=5969837639547 ps q=2
[NIC cqe_tap #882] sc_t=5969837639547 ps q=3
[NIC cqe_tap #883] sc_t=5969840720463 ps q=2
[NIC cqe_tap #884] sc_t=5969840720463 ps q=3
[NIC cqe_tap #885] sc_t=5969843801379 ps q=2
[NIC cqe_tap #886] sc_t=5969843801379 ps q=3
[NIC cqe_tap #887] sc_t=5969846882295 ps q=2
[NIC cqe_tap #888] sc_t=5969846882295 ps q=3
[NIC cqe_tap #889] sc_t=5969849963211 ps q=2
[NIC cqe_tap #890] sc_t=5969849963211 ps q=3
[NIC cqe_tap #891] sc_t=5969853044127 ps q=2
[NIC cqe_tap #892] sc_t=5969853044127 ps q=3
[NIC cqe_tap #893] sc_t=5969856125043 ps q=2
[NIC cqe_tap #894] sc_t=5969856125043 ps q=3
[NIC cqe_tap #895] sc_t=5970748528746 ps q=2
[NIC cqe_tap #896] sc_t=5970748528746 ps q=3
[NIC_DECOMP] drains=3136 cum_cycles=1793 ethdec=1344 jsched=449
[NIC cqe_tap #897] sc_t=5970806060823 ps q=2
[NIC cqe_tap #898] sc_t=5970806060823 ps q=3
[NIC cqe_tap #899] sc_t=5970863592900 ps q=2
[NIC cqe_tap #900] sc_t=5970863592900 ps q=3
[NIC cqe_tap #901] sc_t=5970921124977 ps q=2
[NIC cqe_tap #902] sc_t=5970921124977 ps q=3
[NIC cqe_tap #903] sc_t=5970978657054 ps q=2
[NIC cqe_tap #904] sc_t=5970978657054 ps q=3
[NIC cqe_tap #905] sc_t=5971036189131 ps q=2
[NIC cqe_tap #906] sc_t=5971036189131 ps q=3
[NIC cqe_tap #907] sc_t=5971093721208 ps q=2
[NIC cqe_tap #908] sc_t=5971093721208 ps q=3
[NIC cqe_tap #909] sc_t=5971151253285 ps q=2
[NIC cqe_tap #910] sc_t=5971151253285 ps q=3
[NIC cqe_tap #911] sc_t=5971208785362 ps q=2
[NIC cqe_tap #912] sc_t=5971208785362 ps q=3
[NIC cqe_tap #913] sc_t=5971266317439 ps q=2
[NIC cqe_tap #914] sc_t=5971266317439 ps q=3
[NIC_DECOMP] drains=3200 cum_cycles=1830 ethdec=1371 jsched=459
[NIC cqe_tap #915] sc_t=5971323849516 ps q=2
[NIC cqe_tap #916] sc_t=5971323849516 ps q=3
[NIC cqe_tap #917] sc_t=5971381381593 ps q=2
[NIC cqe_tap #918] sc_t=5971381381593 ps q=3
[NIC cqe_tap #919] sc_t=5971438913670 ps q=2
[NIC cqe_tap #920] sc_t=5971438913670 ps q=3
[NIC cqe_tap #921] sc_t=5971496445747 ps q=2
[NIC cqe_tap #922] sc_t=5971496445747 ps q=3
[NIC cqe_tap #923] sc_t=5971553977824 ps q=2
[NIC cqe_tap #924] sc_t=5971553977824 ps q=3
[NIC cqe_tap #925] sc_t=5971611509901 ps q=2
[NIC cqe_tap #926] sc_t=5971611509901 ps q=3
[NIC cqe_tap #927] sc_t=5971669041978 ps q=2
[NIC cqe_tap #928] sc_t=5971669041978 ps q=3
[NIC cqe_tap #929] sc_t=5971726574055 ps q=2
[NIC cqe_tap #930] sc_t=5971726574055 ps q=3
[NIC cqe_tap #931] sc_t=5971784106132 ps q=2
[NIC cqe_tap #932] sc_t=5971784106132 ps q=3
[NIC cqe_tap #933] sc_t=5971841638209 ps q=2
[NIC cqe_tap #934] sc_t=5971841638209 ps q=3
[NIC cqe_tap #935] sc_t=5971899170286 ps q=2
[NIC cqe_tap #936] sc_t=5971899170286 ps q=3
[NIC cqe_tap #937] sc_t=5971956702363 ps q=2
[NIC cqe_tap #938] sc_t=5971956702363 ps q=3
[NIC cqe_tap #939] sc_t=5972014234440 ps q=2
[NIC cqe_tap #940] sc_t=5972014234440 ps q=3
[NIC cqe_tap #941] sc_t=5972695550109 ps q=2
[NIC cqe_tap #942] sc_t=5972695550109 ps q=3
[NIC cqe_tap #943] sc_t=5972753082186 ps q=2
[NIC cqe_tap #944] sc_t=5972753082186 ps q=3
[NIC cqe_tap #945] sc_t=5972810614263 ps q=2
[NIC cqe_tap #946] sc_t=5972810614263 ps q=3
[NIC cqe_tap #947] sc_t=5972868146340 ps q=2
[NIC cqe_tap #948] sc_t=5972868146340 ps q=3
[NIC cqe_tap #949] sc_t=5972925678417 ps q=2
[NIC cqe_tap #950] sc_t=5972925678417 ps q=3
[NIC cqe_tap #951] sc_t=5972983210494 ps q=2
[NIC cqe_tap #952] sc_t=5972983210494 ps q=3
[NIC cqe_tap #953] sc_t=5973040742571 ps q=2
[NIC cqe_tap #954] sc_t=5973040742571 ps q=3
[NIC cqe_tap #955] sc_t=5973098274648 ps q=2
[NIC cqe_tap #956] sc_t=5973098274648 ps q=3
[NIC cqe_tap #957] sc_t=5973155806725 ps q=2
[NIC cqe_tap #958] sc_t=5973155806725 ps q=3
[NIC cqe_tap #959] sc_t=5974035477174 ps q=2
[NIC cqe_tap #960] sc_t=5974035477174 ps q=3
[NIC cqe_tap #961] sc_t=5974038558090 ps q=2
[NIC cqe_tap #962] sc_t=5974038558090 ps q=3
[NIC cqe_tap #963] sc_t=5974041639006 ps q=2
[NIC cqe_tap #964] sc_t=5974041639006 ps q=3
[NIC cqe_tap #965] sc_t=5974044719922 ps q=2
[NIC cqe_tap #966] sc_t=5974044719922 ps q=3
[NIC cqe_tap #967] sc_t=5974047800838 ps q=2
[NIC cqe_tap #968] sc_t=5974047800838 ps q=3
[NIC cqe_tap #969] sc_t=5974050881754 ps q=2
[NIC cqe_tap #970] sc_t=5974050881754 ps q=3
[NIC cqe_tap #971] sc_t=5974053962670 ps q=2
[NIC cqe_tap #972] sc_t=5974053962670 ps q=3
[NIC cqe_tap #973] sc_t=5974057043586 ps q=2
[NIC cqe_tap #974] sc_t=5974057043586 ps q=3
[NIC cqe_tap #975] sc_t=5974060124502 ps q=2
[NIC cqe_tap #976] sc_t=5974060124502 ps q=3
[NIC cqe_tap #977] sc_t=5974063205418 ps q=2
[NIC cqe_tap #978] sc_t=5974063205418 ps q=3
[NIC cqe_tap #979] sc_t=5974066286334 ps q=2
[NIC cqe_tap #980] sc_t=5974066286334 ps q=3
[NIC cqe_tap #981] sc_t=5974069367250 ps q=2
[NIC cqe_tap #982] sc_t=5974069367250 ps q=3
[NIC cqe_tap #983] sc_t=5974072448166 ps q=2
[NIC cqe_tap #984] sc_t=5974072448166 ps q=3
[NIC cqe_tap #985] sc_t=5974075529082 ps q=2
[NIC cqe_tap #986] sc_t=5974075529082 ps q=3
[NIC cqe_tap #987] sc_t=5974078609998 ps q=2
[NIC cqe_tap #988] sc_t=5974078609998 ps q=3
[NIC cqe_tap #989] sc_t=5974081690914 ps q=2
[NIC cqe_tap #990] sc_t=5974081690914 ps q=3
[NIC cqe_tap #991] sc_t=5974084771830 ps q=2
[NIC cqe_tap #992] sc_t=5974084771830 ps q=3
[NIC cqe_tap #993] sc_t=5974087852746 ps q=2
[NIC cqe_tap #994] sc_t=5974087852746 ps q=3
[NIC cqe_tap #995] sc_t=5974090933662 ps q=2
[NIC cqe_tap #996] sc_t=5974090933662 ps q=3
[NIC cqe_tap #997] sc_t=5974094014578 ps q=2
[NIC cqe_tap #998] sc_t=5974094014578 ps q=3
[NIC cqe_tap #999] sc_t=5974097095494 ps q=2
[NIC cqe_tap #1000] sc_t=5974097095494 ps q=3
[NIC cqe_tap #1001] sc_t=5974100176410 ps q=2
[NIC cqe_tap #1002] sc_t=5974100176410 ps q=3
[NIC cqe_tap #1003] sc_t=5974103257326 ps q=2
[NIC cqe_tap #1004] sc_t=5974103257326 ps q=3
[NIC cqe_tap #1005] sc_t=5974106338242 ps q=2
[NIC cqe_tap #1006] sc_t=5974106338242 ps q=3
[NIC cqe_tap #1007] sc_t=5974109419158 ps q=2
[NIC cqe_tap #1008] sc_t=5974109419158 ps q=3
[NIC cqe_tap #1009] sc_t=5974112500074 ps q=2
[NIC cqe_tap #1010] sc_t=5974112500074 ps q=3
[NIC cqe_tap #1011] sc_t=5974115580990 ps q=2
[NIC cqe_tap #1012] sc_t=5974115580990 ps q=3
[NIC cqe_tap #1013] sc_t=5974118661906 ps q=2
[NIC cqe_tap #1014] sc_t=5974118661906 ps q=3
[NIC cqe_tap #1015] sc_t=5974121742822 ps q=2
[NIC cqe_tap #1016] sc_t=5974121742822 ps q=3
[NIC cqe_tap #1017] sc_t=5974124823738 ps q=2
[NIC cqe_tap #1018] sc_t=5974124823738 ps q=3
[NIC cqe_tap #1019] sc_t=5974127904654 ps q=2
[NIC cqe_tap #1020] sc_t=5974127904654 ps q=3
[NIC cqe_tap #1021] sc_t=5974130985570 ps q=2
[NIC cqe_tap #1022] sc_t=5974130985570 ps q=3
[NIC cqe_tap #1023] sc_t=5974134066486 ps q=2
[NIC cqe_tap #1024] sc_t=5974134066486 ps q=3
[NIC_DECOMP] drains=3584 cum_cycles=2049 ethdec=1536 jsched=513
[NIC cqe_tap #1025] sc_t=5974137147402 ps q=2
[NIC cqe_tap #1026] sc_t=5974137147402 ps q=3
[NIC cqe_tap #1027] sc_t=5974140228318 ps q=2
[NIC cqe_tap #1028] sc_t=5974140228318 ps q=3
[NIC cqe_tap #1029] sc_t=5974143309234 ps q=2
[NIC cqe_tap #1030] sc_t=5974143309234 ps q=3
[NIC cqe_tap #1031] sc_t=5974146390150 ps q=2
[NIC cqe_tap #1032] sc_t=5974146390150 ps q=3
[NIC cqe_tap #1033] sc_t=5974149471066 ps q=2
[NIC cqe_tap #1034] sc_t=5974149471066 ps q=3
[NIC cqe_tap #1035] sc_t=5974152551982 ps q=2
[NIC cqe_tap #1036] sc_t=5974152551982 ps q=3
[NIC cqe_tap #1037] sc_t=5974155632898 ps q=2
[NIC cqe_tap #1038] sc_t=5974155632898 ps q=3
[NIC cqe_tap #1039] sc_t=5974158713814 ps q=2
[NIC cqe_tap #1040] sc_t=5974158713814 ps q=3
[NIC cqe_tap #1041] sc_t=5974161794730 ps q=2
[NIC cqe_tap #1042] sc_t=5974161794730 ps q=3
[NIC_DECOMP] drains=3648 cum_cycles=2086 ethdec=1563 jsched=523
[NIC cqe_tap #1043] sc_t=5974164875646 ps q=2
[NIC cqe_tap #1044] sc_t=5974164875646 ps q=3
[NIC cqe_tap #1045] sc_t=5974167956562 ps q=2
[NIC cqe_tap #1046] sc_t=5974167956562 ps q=3
[NIC cqe_tap #1047] sc_t=5974171037478 ps q=2
[NIC cqe_tap #1048] sc_t=5974171037478 ps q=3
[NIC cqe_tap #1049] sc_t=5974174118394 ps q=2
[NIC cqe_tap #1050] sc_t=5974174118394 ps q=3
[NIC cqe_tap #1051] sc_t=5974177199310 ps q=2
[NIC cqe_tap #1052] sc_t=5974177199310 ps q=3
[NIC cqe_tap #1053] sc_t=5974180280226 ps q=2
[NIC cqe_tap #1054] sc_t=5974180280226 ps q=3
[NIC cqe_tap #1055] sc_t=5974183361142 ps q=2
[NIC cqe_tap #1056] sc_t=5974183361142 ps q=3
[NIC cqe_tap #1057] sc_t=5974186442058 ps q=2
[NIC cqe_tap #1058] sc_t=5974186442058 ps q=3
[NIC cqe_tap #1059] sc_t=5974189522974 ps q=2
[NIC cqe_tap #1060] sc_t=5974189522974 ps q=3
[NIC cqe_tap #1061] sc_t=5974192603890 ps q=2
[NIC cqe_tap #1062] sc_t=5974192603890 ps q=3
[NIC cqe_tap #1063] sc_t=5974195684806 ps q=2
[NIC cqe_tap #1064] sc_t=5974195684806 ps q=3
[NIC cqe_tap #1065] sc_t=5974198765722 ps q=2
[NIC cqe_tap #1066] sc_t=5974198765722 ps q=3
[NIC cqe_tap #1067] sc_t=5974201846638 ps q=2
[NIC cqe_tap #1068] sc_t=5974201846638 ps q=3
[NIC cqe_tap #1069] sc_t=5974204927554 ps q=2
[NIC cqe_tap #1070] sc_t=5974204927554 ps q=3
[NIC cqe_tap #1071] sc_t=5974208008470 ps q=2
[NIC cqe_tap #1072] sc_t=5974208008470 ps q=3
[NIC cqe_tap #1073] sc_t=5974211089386 ps q=2
[NIC cqe_tap #1074] sc_t=5974211089386 ps q=3
[NIC cqe_tap #1075] sc_t=5974214170302 ps q=2
[NIC cqe_tap #1076] sc_t=5974214170302 ps q=3
[NIC cqe_tap #1077] sc_t=5974217251218 ps q=2
[NIC cqe_tap #1078] sc_t=5974217251218 ps q=3
[NIC cqe_tap #1079] sc_t=5974220332134 ps q=2
[NIC cqe_tap #1080] sc_t=5974220332134 ps q=3
[NIC cqe_tap #1081] sc_t=5974223413050 ps q=2
[NIC cqe_tap #1082] sc_t=5974223413050 ps q=3
[NIC cqe_tap #1083] sc_t=5974226493966 ps q=2
[NIC cqe_tap #1084] sc_t=5974226493966 ps q=3
[NIC cqe_tap #1085] sc_t=5974229574882 ps q=2
[NIC cqe_tap #1086] sc_t=5974229574882 ps q=3
[NIC cqe_tap #1087] sc_t=5974232655798 ps q=2
[NIC cqe_tap #1088] sc_t=5974232655798 ps q=3
[NIC cqe_tap #1089] sc_t=5974235736714 ps q=2
[NIC cqe_tap #1090] sc_t=5974235736714 ps q=3
[NIC cqe_tap #1091] sc_t=5974238817630 ps q=2
[NIC cqe_tap #1092] sc_t=5974238817630 ps q=3
[NIC cqe_tap #1093] sc_t=5974241898546 ps q=2
[NIC cqe_tap #1094] sc_t=5974241898546 ps q=3
[NIC cqe_tap #1095] sc_t=5974244979462 ps q=2
[NIC cqe_tap #1096] sc_t=5974244979462 ps q=3
[NIC cqe_tap #1097] sc_t=5974248060378 ps q=2
[NIC cqe_tap #1098] sc_t=5974248060378 ps q=3
[NIC cqe_tap #1099] sc_t=5974251141294 ps q=2
[NIC cqe_tap #1100] sc_t=5974251141294 ps q=3
[NIC cqe_tap #1101] sc_t=5974254222210 ps q=2
[NIC cqe_tap #1102] sc_t=5974254222210 ps q=3
[NIC cqe_tap #1103] sc_t=5974257303126 ps q=2
[NIC cqe_tap #1104] sc_t=5974257303126 ps q=3
[NIC cqe_tap #1105] sc_t=5974260384042 ps q=2
[NIC cqe_tap #1106] sc_t=5974260384042 ps q=3
[NIC cqe_tap #1107] sc_t=5974263464958 ps q=2
[NIC cqe_tap #1108] sc_t=5974263464958 ps q=3
[NIC cqe_tap #1109] sc_t=5974266545874 ps q=2
[NIC cqe_tap #1110] sc_t=5974266545874 ps q=3
[NIC cqe_tap #1111] sc_t=5974269626790 ps q=2
[NIC cqe_tap #1112] sc_t=5974269626790 ps q=3
[NIC cqe_tap #1113] sc_t=5974272707706 ps q=2
[NIC cqe_tap #1114] sc_t=5974272707706 ps q=3
[NIC cqe_tap #1115] sc_t=5974275788622 ps q=2
[NIC cqe_tap #1116] sc_t=5974275788622 ps q=3
[NIC cqe_tap #1117] sc_t=5974278869538 ps q=2
[NIC cqe_tap #1118] sc_t=5974278869538 ps q=3
[NIC cqe_tap #1119] sc_t=5974281950454 ps q=2
[NIC cqe_tap #1120] sc_t=5974281950454 ps q=3
[NIC cqe_tap #1121] sc_t=5974285031370 ps q=2
[NIC cqe_tap #1122] sc_t=5974285031370 ps q=3
[NIC cqe_tap #1123] sc_t=5974288112286 ps q=2
[NIC cqe_tap #1124] sc_t=5974288112286 ps q=3
[NIC cqe_tap #1125] sc_t=5974291193202 ps q=2
[NIC cqe_tap #1126] sc_t=5974291193202 ps q=3
[NIC cqe_tap #1127] sc_t=5974294274118 ps q=2
[NIC cqe_tap #1128] sc_t=5974294274118 ps q=3
[NIC cqe_tap #1129] sc_t=5974297355034 ps q=2
[NIC cqe_tap #1130] sc_t=5974297355034 ps q=3
[NIC cqe_tap #1131] sc_t=5974300435950 ps q=2
[NIC cqe_tap #1132] sc_t=5974300435950 ps q=3
[NIC cqe_tap #1133] sc_t=5974303516866 ps q=2
[NIC cqe_tap #1134] sc_t=5974303516866 ps q=3
[NIC cqe_tap #1135] sc_t=5974306597782 ps q=2
[NIC cqe_tap #1136] sc_t=5974306597782 ps q=3
[NIC cqe_tap #1137] sc_t=5974309678698 ps q=2
[NIC cqe_tap #1138] sc_t=5974309678698 ps q=3
[NIC cqe_tap #1139] sc_t=5974312759614 ps q=2
[NIC cqe_tap #1140] sc_t=5974312759614 ps q=3
[NIC cqe_tap #1141] sc_t=5974315840530 ps q=2
[NIC cqe_tap #1142] sc_t=5974315840530 ps q=3
[NIC cqe_tap #1143] sc_t=5974318921446 ps q=2
[NIC cqe_tap #1144] sc_t=5974318921446 ps q=3
[NIC cqe_tap #1145] sc_t=5974322002362 ps q=2
[NIC cqe_tap #1146] sc_t=5974322002362 ps q=3
[NIC cqe_tap #1147] sc_t=5974325083278 ps q=2
[NIC cqe_tap #1148] sc_t=5974325083278 ps q=3
[NIC cqe_tap #1149] sc_t=5974328164194 ps q=2
[NIC cqe_tap #1150] sc_t=5974328164194 ps q=3
[NIC cqe_tap #1151] sc_t=5974331245110 ps q=2
[NIC cqe_tap #1152] sc_t=5974331245110 ps q=3
[NIC_DECOMP] drains=4032 cum_cycles=2305 ethdec=1728 jsched=577
[NIC cqe_tap #1153] sc_t=5974334326026 ps q=2
[NIC cqe_tap #1154] sc_t=5974334326026 ps q=3
[NIC cqe_tap #1155] sc_t=5974337406942 ps q=2
[NIC cqe_tap #1156] sc_t=5974337406942 ps q=3
[NIC cqe_tap #1157] sc_t=5974340487858 ps q=2
[NIC cqe_tap #1158] sc_t=5974340487858 ps q=3
[NIC cqe_tap #1159] sc_t=5974343568774 ps q=2
[NIC cqe_tap #1160] sc_t=5974343568774 ps q=3
[NIC cqe_tap #1161] sc_t=5974346649690 ps q=2
[NIC cqe_tap #1162] sc_t=5974346649690 ps q=3
[NIC cqe_tap #1163] sc_t=5974349730606 ps q=2
[NIC cqe_tap #1164] sc_t=5974349730606 ps q=3
[NIC cqe_tap #1165] sc_t=5974352811522 ps q=2
[NIC cqe_tap #1166] sc_t=5974352811522 ps q=3
[NIC cqe_tap #1167] sc_t=5974355892438 ps q=2
[NIC cqe_tap #1168] sc_t=5974355892438 ps q=3
[NIC cqe_tap #1169] sc_t=5974358973354 ps q=2
[NIC cqe_tap #1170] sc_t=5974358973354 ps q=3
[NIC_DECOMP] drains=4096 cum_cycles=2342 ethdec=1755 jsched=587
[NIC cqe_tap #1171] sc_t=5974362054270 ps q=2
[NIC cqe_tap #1172] sc_t=5974362054270 ps q=3
[NIC cqe_tap #1173] sc_t=5974365135186 ps q=2
[NIC cqe_tap #1174] sc_t=5974365135186 ps q=3
[NIC cqe_tap #1175] sc_t=5974368216102 ps q=2
[NIC cqe_tap #1176] sc_t=5974368216102 ps q=3
[NIC cqe_tap #1177] sc_t=5974371297018 ps q=2
[NIC cqe_tap #1178] sc_t=5974371297018 ps q=3
[NIC cqe_tap #1179] sc_t=5974374377934 ps q=2
[NIC cqe_tap #1180] sc_t=5974374377934 ps q=3
[NIC cqe_tap #1181] sc_t=5974377458850 ps q=2
[NIC cqe_tap #1182] sc_t=5974377458850 ps q=3
[NIC cqe_tap #1183] sc_t=5974380539766 ps q=2
[NIC cqe_tap #1184] sc_t=5974380539766 ps q=3
[NIC cqe_tap #1185] sc_t=5974383620682 ps q=2
[NIC cqe_tap #1186] sc_t=5974383620682 ps q=3
[NIC cqe_tap #1187] sc_t=5974386701598 ps q=2
[NIC cqe_tap #1188] sc_t=5974386701598 ps q=3
[NIC cqe_tap #1189] sc_t=5974389782514 ps q=2
[NIC cqe_tap #1190] sc_t=5974389782514 ps q=3
[NIC cqe_tap #1191] sc_t=5974392863430 ps q=2
[NIC cqe_tap #1192] sc_t=5974392863430 ps q=3
[NIC cqe_tap #1193] sc_t=5974395944346 ps q=2
[NIC cqe_tap #1194] sc_t=5974395944346 ps q=3
[NIC cqe_tap #1195] sc_t=5974399025262 ps q=2
[NIC cqe_tap #1196] sc_t=5974399025262 ps q=3
[NIC cqe_tap #1197] sc_t=5974402106178 ps q=2
[NIC cqe_tap #1198] sc_t=5974402106178 ps q=3
[NIC cqe_tap #1199] sc_t=5974405187094 ps q=2
[NIC cqe_tap #1200] sc_t=5974405187094 ps q=3
[NIC cqe_tap #1201] sc_t=5974408268010 ps q=2
[NIC cqe_tap #1202] sc_t=5974408268010 ps q=3
[NIC cqe_tap #1203] sc_t=5974411348926 ps q=2
[NIC cqe_tap #1204] sc_t=5974411348926 ps q=3
[NIC cqe_tap #1205] sc_t=5974414429842 ps q=2
[NIC cqe_tap #1206] sc_t=5974414429842 ps q=3
[NIC cqe_tap #1207] sc_t=5974417510758 ps q=2
[NIC cqe_tap #1208] sc_t=5974417510758 ps q=3
[NIC cqe_tap #1209] sc_t=5974420591674 ps q=2
[NIC cqe_tap #1210] sc_t=5974420591674 ps q=3
[NIC cqe_tap #1211] sc_t=5974423672590 ps q=2
[NIC cqe_tap #1212] sc_t=5974423672590 ps q=3
[NIC cqe_tap #1213] sc_t=5974426753506 ps q=2
[NIC cqe_tap #1214] sc_t=5974426753506 ps q=3
[NIC cqe_tap #1215] sc_t=5975326736622 ps q=2
[NIC cqe_tap #1216] sc_t=5975326736622 ps q=3
[NIC cqe_tap #1217] sc_t=5975384268699 ps q=2
[NIC cqe_tap #1218] sc_t=5975384268699 ps q=3
[NIC cqe_tap #1219] sc_t=5975441800776 ps q=2
[NIC cqe_tap #1220] sc_t=5975441800776 ps q=3
[NIC cqe_tap #1221] sc_t=5975499332853 ps q=2
[NIC cqe_tap #1222] sc_t=5975499332853 ps q=3
[NIC cqe_tap #1223] sc_t=5975556864930 ps q=2
[NIC cqe_tap #1224] sc_t=5975556864930 ps q=3
[NIC cqe_tap #1225] sc_t=5975614397007 ps q=2
[NIC cqe_tap #1226] sc_t=5975614397007 ps q=3
[NIC cqe_tap #1227] sc_t=5975671929084 ps q=2
[NIC cqe_tap #1228] sc_t=5975671929084 ps q=3
[NIC cqe_tap #1229] sc_t=5975729461161 ps q=2
[NIC cqe_tap #1230] sc_t=5975729461161 ps q=3
[NIC cqe_tap #1231] sc_t=5975786993238 ps q=2
[NIC cqe_tap #1232] sc_t=5975786993238 ps q=3
[NIC cqe_tap #1233] sc_t=5975844525315 ps q=2
[NIC cqe_tap #1234] sc_t=5975844525315 ps q=3
[NIC cqe_tap #1235] sc_t=5975902057392 ps q=2
[NIC cqe_tap #1236] sc_t=5975902057392 ps q=3
[NIC cqe_tap #1237] sc_t=5975959589469 ps q=2
[NIC cqe_tap #1238] sc_t=5975959589469 ps q=3
[NIC cqe_tap #1239] sc_t=5976017121546 ps q=2
[NIC cqe_tap #1240] sc_t=5976017121546 ps q=3
[NIC cqe_tap #1241] sc_t=5976074653623 ps q=2
[NIC cqe_tap #1242] sc_t=5976074653623 ps q=3
[NIC cqe_tap #1243] sc_t=5976132185700 ps q=2
[NIC cqe_tap #1244] sc_t=5976132185700 ps q=3
[NIC cqe_tap #1245] sc_t=5976805563315 ps q=2
[NIC cqe_tap #1246] sc_t=5976805563315 ps q=3
[NIC cqe_tap #1247] sc_t=5976863095392 ps q=2
[NIC cqe_tap #1248] sc_t=5976863095392 ps q=3
[NIC cqe_tap #1249] sc_t=5976920627469 ps q=2
[NIC cqe_tap #1250] sc_t=5976920627469 ps q=3
[NIC cqe_tap #1251] sc_t=5976978159546 ps q=2
[NIC cqe_tap #1252] sc_t=5976978159546 ps q=3
[NIC cqe_tap #1253] sc_t=5977035691623 ps q=2
[NIC cqe_tap #1254] sc_t=5977035691623 ps q=3
[NIC cqe_tap #1255] sc_t=5977093223700 ps q=2
[NIC cqe_tap #1256] sc_t=5977093223700 ps q=3
[NIC cqe_tap #1257] sc_t=5977150755777 ps q=2
[NIC cqe_tap #1258] sc_t=5977150755777 ps q=3
[NIC cqe_tap #1259] sc_t=5977208287854 ps q=2
[NIC cqe_tap #1260] sc_t=5977208287854 ps q=3
[NIC cqe_tap #1261] sc_t=5977265819931 ps q=2
[NIC cqe_tap #1262] sc_t=5977265819931 ps q=3
[NIC cqe_tap #1263] sc_t=5977323352008 ps q=2
[NIC cqe_tap #1264] sc_t=5977323352008 ps q=3
[NIC cqe_tap #1265] sc_t=5977380884085 ps q=2
[NIC cqe_tap #1266] sc_t=5977380884085 ps q=3
[NIC cqe_tap #1267] sc_t=5977438416162 ps q=2
[NIC cqe_tap #1268] sc_t=5977438416162 ps q=3
[NIC cqe_tap #1269] sc_t=5977495948239 ps q=2
[NIC cqe_tap #1270] sc_t=5977495948239 ps q=3
[NIC cqe_tap #1271] sc_t=5977553480316 ps q=2
[NIC cqe_tap #1272] sc_t=5977553480316 ps q=3
[NIC cqe_tap #1273] sc_t=5977611012393 ps q=2
[NIC cqe_tap #1274] sc_t=5977611012393 ps q=3
[NIC cqe_tap #1275] sc_t=5977668544470 ps q=2
[NIC cqe_tap #1276] sc_t=5977668544470 ps q=3
[NIC cqe_tap #1277] sc_t=5977726076547 ps q=2
[NIC cqe_tap #1278] sc_t=5977726076547 ps q=3
[NIC cqe_tap #1279] sc_t=5977783608624 ps q=2
[NIC cqe_tap #1280] sc_t=5977783608624 ps q=3
[NIC_DECOMP] drains=4480 cum_cycles=2561 ethdec=1920 jsched=641
[NIC cqe_tap #1281] sc_t=5977841140701 ps q=2
[NIC cqe_tap #1282] sc_t=5977841140701 ps q=3
[NIC cqe_tap #1283] sc_t=5977898672778 ps q=2
[NIC cqe_tap #1284] sc_t=5977898672778 ps q=3
[NIC cqe_tap #1285] sc_t=5977956204855 ps q=2
[NIC cqe_tap #1286] sc_t=5977956204855 ps q=3
[NIC cqe_tap #1287] sc_t=5978013736932 ps q=2
[NIC cqe_tap #1288] sc_t=5978013736932 ps q=3
[NIC cqe_tap #1289] sc_t=5978071269009 ps q=2
[NIC cqe_tap #1290] sc_t=5978071269009 ps q=3
[NIC cqe_tap #1291] sc_t=5978128801086 ps q=2
[NIC cqe_tap #1292] sc_t=5978128801086 ps q=3
[NIC cqe_tap #1293] sc_t=5978186333163 ps q=2
[NIC cqe_tap #1294] sc_t=5978186333163 ps q=3
[NIC cqe_tap #1295] sc_t=5978243865240 ps q=2
[NIC cqe_tap #1296] sc_t=5978243865240 ps q=3
[NIC cqe_tap #1297] sc_t=5978301397317 ps q=2
[NIC cqe_tap #1298] sc_t=5978301397317 ps q=3
[NIC_DECOMP] drains=4544 cum_cycles=2598 ethdec=1947 jsched=651
[NIC cqe_tap #1299] sc_t=5978358929394 ps q=2
[NIC cqe_tap #1300] sc_t=5978358929394 ps q=3
[NIC cqe_tap #1301] sc_t=5978416461471 ps q=2
[NIC cqe_tap #1302] sc_t=5978416461471 ps q=3
[NIC cqe_tap #1303] sc_t=5978473993548 ps q=2
[NIC cqe_tap #1304] sc_t=5978473993548 ps q=3
[NIC cqe_tap #1305] sc_t=5978531525625 ps q=2
[NIC cqe_tap #1306] sc_t=5978531525625 ps q=3
[NIC cqe_tap #1307] sc_t=5978589057702 ps q=2
[NIC cqe_tap #1308] sc_t=5978589057702 ps q=3
[NIC cqe_tap #1309] sc_t=5978646589779 ps q=2
[NIC cqe_tap #1310] sc_t=5978646589779 ps q=3
[NIC cqe_tap #1311] sc_t=5978704121856 ps q=2
[NIC cqe_tap #1312] sc_t=5978704121856 ps q=3
[NIC cqe_tap #1313] sc_t=5978761653933 ps q=2
[NIC cqe_tap #1314] sc_t=5978761653933 ps q=3
[NIC cqe_tap #1315] sc_t=5978819186010 ps q=2
[NIC cqe_tap #1316] sc_t=5978819186010 ps q=3
[NIC cqe_tap #1317] sc_t=5978876718087 ps q=2
[NIC cqe_tap #1318] sc_t=5978876718087 ps q=3
[NIC cqe_tap #1319] sc_t=5978934250164 ps q=2
[NIC cqe_tap #1320] sc_t=5978934250164 ps q=3
[NIC cqe_tap #1321] sc_t=5978991782241 ps q=2
[NIC cqe_tap #1322] sc_t=5978991782241 ps q=3
[NIC cqe_tap #1323] sc_t=5979049314318 ps q=2
[NIC cqe_tap #1324] sc_t=5979049314318 ps q=3
[NIC cqe_tap #1325] sc_t=5979106846395 ps q=2
[NIC cqe_tap #1326] sc_t=5979106846395 ps q=3
[NIC cqe_tap #1327] sc_t=5979164378472 ps q=2
[NIC cqe_tap #1328] sc_t=5979164378472 ps q=3
[NIC cqe_tap #1329] sc_t=5979221910549 ps q=2
[NIC cqe_tap #1330] sc_t=5979221910549 ps q=3
[NIC cqe_tap #1331] sc_t=5979279442626 ps q=2
[NIC cqe_tap #1332] sc_t=5979279442626 ps q=3
[NIC cqe_tap #1333] sc_t=5979336974703 ps q=2
[NIC cqe_tap #1334] sc_t=5979336974703 ps q=3
[NIC cqe_tap #1335] sc_t=5979394506780 ps q=2
[NIC cqe_tap #1336] sc_t=5979394506780 ps q=3
[NIC cqe_tap #1337] sc_t=5979452038857 ps q=2
[NIC cqe_tap #1338] sc_t=5979452038857 ps q=3
[NIC cqe_tap #1339] sc_t=5979509570934 ps q=2
[NIC cqe_tap #1340] sc_t=5979509570934 ps q=3
[NIC cqe_tap #1341] sc_t=5979567103011 ps q=2
[NIC cqe_tap #1342] sc_t=5979567103011 ps q=3
[NIC cqe_tap #1343] sc_t=5979624635088 ps q=2
[NIC cqe_tap #1344] sc_t=5979624635088 ps q=3
[NIC cqe_tap #1345] sc_t=5979682167165 ps q=2
[NIC cqe_tap #1346] sc_t=5979682167165 ps q=3
[NIC cqe_tap #1347] sc_t=5979739699242 ps q=2
[NIC cqe_tap #1348] sc_t=5979739699242 ps q=3
[NIC cqe_tap #1349] sc_t=5979797231319 ps q=2
[NIC cqe_tap #1350] sc_t=5979797231319 ps q=3
[NIC cqe_tap #1351] sc_t=5979854763396 ps q=2
[NIC cqe_tap #1352] sc_t=5979854763396 ps q=3
[NIC cqe_tap #1353] sc_t=5979912295473 ps q=2
[NIC cqe_tap #1354] sc_t=5979912295473 ps q=3
[NIC cqe_tap #1355] sc_t=5979969827550 ps q=2
[NIC cqe_tap #1356] sc_t=5979969827550 ps q=3
[NIC cqe_tap #1357] sc_t=5980027359627 ps q=2
[NIC cqe_tap #1358] sc_t=5980027359627 ps q=3
[NIC cqe_tap #1359] sc_t=5980084891704 ps q=2
[NIC cqe_tap #1360] sc_t=5980084891704 ps q=3
[NIC cqe_tap #1361] sc_t=5980142423781 ps q=2
[NIC cqe_tap #1362] sc_t=5980142423781 ps q=3
[NIC cqe_tap #1363] sc_t=5980199955858 ps q=2
[NIC cqe_tap #1364] sc_t=5980199955858 ps q=3
[NIC cqe_tap #1365] sc_t=5980257487935 ps q=2
[NIC cqe_tap #1366] sc_t=5980257487935 ps q=3
[NIC cqe_tap #1367] sc_t=5980315020012 ps q=2
[NIC cqe_tap #1368] sc_t=5980315020012 ps q=3
[NIC cqe_tap #1369] sc_t=5980984805889 ps q=2
[NIC cqe_tap #1370] sc_t=5980984805889 ps q=3
[NIC cqe_tap #1371] sc_t=5981042337966 ps q=2
[NIC cqe_tap #1372] sc_t=5981042337966 ps q=3
[NIC cqe_tap #1373] sc_t=5981099870043 ps q=2
[NIC cqe_tap #1374] sc_t=5981099870043 ps q=3
[NIC cqe_tap #1375] sc_t=5981157402120 ps q=2
[NIC cqe_tap #1376] sc_t=5981157402120 ps q=3
[NIC cqe_tap #1377] sc_t=5981214934197 ps q=2
[NIC cqe_tap #1378] sc_t=5981214934197 ps q=3
[NIC cqe_tap #1379] sc_t=5981272466274 ps q=2
[NIC cqe_tap #1380] sc_t=5981272466274 ps q=3
[NIC cqe_tap #1381] sc_t=5981329998351 ps q=2
[NIC cqe_tap #1382] sc_t=5981329998351 ps q=3
[NIC cqe_tap #1383] sc_t=5981387530428 ps q=2
[NIC cqe_tap #1384] sc_t=5981387530428 ps q=3
[NIC cqe_tap #1385] sc_t=5981445062505 ps q=2
[NIC cqe_tap #1386] sc_t=5981445062505 ps q=3
[NIC cqe_tap #1387] sc_t=5981502594582 ps q=2
[NIC cqe_tap #1388] sc_t=5981502594582 ps q=3
[NIC cqe_tap #1389] sc_t=5981560126659 ps q=2
[NIC cqe_tap #1390] sc_t=5981560126659 ps q=3
[NIC cqe_tap #1391] sc_t=5981617658736 ps q=2
[NIC cqe_tap #1392] sc_t=5981617658736 ps q=3
[NIC cqe_tap #1393] sc_t=5981675190813 ps q=2
[NIC cqe_tap #1394] sc_t=5981675190813 ps q=3
[NIC cqe_tap #1395] sc_t=5981732722890 ps q=2
[NIC cqe_tap #1396] sc_t=5981732722890 ps q=3
[NIC cqe_tap #1397] sc_t=5981790254967 ps q=2
[NIC cqe_tap #1398] sc_t=5981790254967 ps q=3
[NIC cqe_tap #1399] sc_t=5981847787044 ps q=2
[NIC cqe_tap #1400] sc_t=5981847787044 ps q=3
[NIC cqe_tap #1401] sc_t=5981905319121 ps q=2
[NIC cqe_tap #1402] sc_t=5981905319121 ps q=3
[NIC cqe_tap #1403] sc_t=5981962851198 ps q=2
[NIC cqe_tap #1404] sc_t=5981962851198 ps q=3
[NIC cqe_tap #1405] sc_t=5982020383275 ps q=2
[NIC cqe_tap #1406] sc_t=5982020383275 ps q=3
[NIC cqe_tap #1407] sc_t=5982077915352 ps q=2
[NIC cqe_tap #1408] sc_t=5982077915352 ps q=3
[NIC_DECOMP] drains=4928 cum_cycles=2817 ethdec=2112 jsched=705
[NIC cqe_tap #1409] sc_t=5982135447429 ps q=2
[NIC cqe_tap #1410] sc_t=5982135447429 ps q=3
[NIC cqe_tap #1411] sc_t=5982192979506 ps q=2
[NIC cqe_tap #1412] sc_t=5982192979506 ps q=3
[NIC cqe_tap #1413] sc_t=5982250511583 ps q=2
[NIC cqe_tap #1414] sc_t=5982250511583 ps q=3
[NIC cqe_tap #1415] sc_t=5982308043660 ps q=2
[NIC cqe_tap #1416] sc_t=5982308043660 ps q=3
[NIC cqe_tap #1417] sc_t=5982365575737 ps q=2
[NIC cqe_tap #1418] sc_t=5982365575737 ps q=3
[NIC cqe_tap #1419] sc_t=5982423107814 ps q=2
[NIC cqe_tap #1420] sc_t=5982423107814 ps q=3
[NIC cqe_tap #1421] sc_t=5982480639891 ps q=2
[NIC cqe_tap #1422] sc_t=5982480639891 ps q=3
[NIC cqe_tap #1423] sc_t=5982538171968 ps q=2
[NIC cqe_tap #1424] sc_t=5982538171968 ps q=3
[NIC cqe_tap #1425] sc_t=5982595704045 ps q=2
[NIC cqe_tap #1426] sc_t=5982595704045 ps q=3
[NIC_DECOMP] drains=4992 cum_cycles=2854 ethdec=2139 jsched=715
[NIC cqe_tap #1427] sc_t=5982653236122 ps q=2
[NIC cqe_tap #1428] sc_t=5982653236122 ps q=3
[NIC cqe_tap #1429] sc_t=5982710768199 ps q=2
[NIC cqe_tap #1430] sc_t=5982710768199 ps q=3
[NIC cqe_tap #1431] sc_t=5982768300276 ps q=2
[NIC cqe_tap #1432] sc_t=5982768300276 ps q=3
[NIC cqe_tap #1433] sc_t=5982825832353 ps q=2
[NIC cqe_tap #1434] sc_t=5982825832353 ps q=3
[NIC cqe_tap #1435] sc_t=5982883364430 ps q=2
[NIC cqe_tap #1436] sc_t=5982883364430 ps q=3
[NIC cqe_tap #1437] sc_t=5982940896507 ps q=2
[NIC cqe_tap #1438] sc_t=5982940896507 ps q=3
[NIC cqe_tap #1439] sc_t=5982998428584 ps q=2
[NIC cqe_tap #1440] sc_t=5982998428584 ps q=3
[NIC cqe_tap #1441] sc_t=5983055960661 ps q=2
[NIC cqe_tap #1442] sc_t=5983055960661 ps q=3
[NIC cqe_tap #1443] sc_t=5983113492738 ps q=2
[NIC cqe_tap #1444] sc_t=5983113492738 ps q=3
[NIC cqe_tap #1445] sc_t=5983171024815 ps q=2
[NIC cqe_tap #1446] sc_t=5983171024815 ps q=3
[NIC cqe_tap #1447] sc_t=5983228556892 ps q=2
[NIC cqe_tap #1448] sc_t=5983228556892 ps q=3
[NIC cqe_tap #1449] sc_t=5983286088969 ps q=2
[NIC cqe_tap #1450] sc_t=5983286088969 ps q=3
[NIC cqe_tap #1451] sc_t=5983343621046 ps q=2
[NIC cqe_tap #1452] sc_t=5983343621046 ps q=3
[NIC cqe_tap #1453] sc_t=5983401153123 ps q=2
[NIC cqe_tap #1454] sc_t=5983401153123 ps q=3
[NIC cqe_tap #1455] sc_t=5983458685200 ps q=2
[NIC cqe_tap #1456] sc_t=5983458685200 ps q=3
[NIC cqe_tap #1457] sc_t=5983516217277 ps q=2
[NIC cqe_tap #1458] sc_t=5983516217277 ps q=3
[NIC cqe_tap #1459] sc_t=5983573749354 ps q=2
[NIC cqe_tap #1460] sc_t=5983573749354 ps q=3
[NIC cqe_tap #1461] sc_t=5983631281431 ps q=2
[NIC cqe_tap #1462] sc_t=5983631281431 ps q=3
[NIC cqe_tap #1463] sc_t=5983688813508 ps q=2
[NIC cqe_tap #1464] sc_t=5983688813508 ps q=3
[NIC cqe_tap #1465] sc_t=5983746345585 ps q=2
[NIC cqe_tap #1466] sc_t=5983746345585 ps q=3
[NIC cqe_tap #1467] sc_t=5983803877662 ps q=2
[NIC cqe_tap #1468] sc_t=5983803877662 ps q=3
[NIC cqe_tap #1469] sc_t=5983861409739 ps q=2
[NIC cqe_tap #1470] sc_t=5983861409739 ps q=3
[NIC cqe_tap #1471] sc_t=5985362232414 ps q=2
[NIC cqe_tap #1472] sc_t=5985362232414 ps q=3
[NIC cqe_tap #1473] sc_t=5985365313330 ps q=2
[NIC cqe_tap #1474] sc_t=5985365313330 ps q=3
[NIC cqe_tap #1475] sc_t=5985368394246 ps q=2
[NIC cqe_tap #1476] sc_t=5985368394246 ps q=3
[NIC cqe_tap #1477] sc_t=5985371475162 ps q=2
[NIC cqe_tap #1478] sc_t=5985371475162 ps q=3
[NIC cqe_tap #1479] sc_t=5985374556078 ps q=2
[NIC cqe_tap #1480] sc_t=5985374556078 ps q=3
[NIC cqe_tap #1481] sc_t=5985377636994 ps q=2
[NIC cqe_tap #1482] sc_t=5985377636994 ps q=3
[NIC cqe_tap #1483] sc_t=5985380717910 ps q=2
[NIC cqe_tap #1484] sc_t=5985380717910 ps q=3
[NIC cqe_tap #1485] sc_t=5985383798826 ps q=2
[NIC cqe_tap #1486] sc_t=5985383798826 ps q=3
[NIC cqe_tap #1487] sc_t=5985386879742 ps q=2
[NIC cqe_tap #1488] sc_t=5985386879742 ps q=3
[NIC cqe_tap #1489] sc_t=5985389960658 ps q=2
[NIC cqe_tap #1490] sc_t=5985389960658 ps q=3
[NIC cqe_tap #1491] sc_t=5985393041574 ps q=2
[NIC cqe_tap #1492] sc_t=5985393041574 ps q=3
[NIC cqe_tap #1493] sc_t=5985396122490 ps q=2
[NIC cqe_tap #1494] sc_t=5985396122490 ps q=3
[NIC cqe_tap #1495] sc_t=5985399203406 ps q=2
[NIC cqe_tap #1496] sc_t=5985399203406 ps q=3
[NIC cqe_tap #1497] sc_t=5985402284322 ps q=2
[NIC cqe_tap #1498] sc_t=5985402284322 ps q=3
[NIC cqe_tap #1499] sc_t=5985405365238 ps q=2
[NIC cqe_tap #1500] sc_t=5985405365238 ps q=3
[NIC cqe_tap #1501] sc_t=5985408446154 ps q=2
[NIC cqe_tap #1502] sc_t=5985408446154 ps q=3
[...]
[NIC cqe_tap #3192] sc_t=6010207165611 ps q=3
[NIC cqe_tap #3193] sc_t=6010264697688 ps q=2
[NIC cqe_tap #3194] sc_t=6010264697688 ps q=3
[NIC cqe_tap #3195] sc_t=6010322229765 ps q=2
[NIC cqe_tap #3196] sc_t=6010322229765 ps q=3
[NIC cqe_tap #3197] sc_t=6010379761842 ps q=2
[NIC cqe_tap #3198] sc_t=6010379761842 ps q=3
[NIC cqe_tap #3199] sc_t=6010437293919 ps q=2
[NIC cqe_tap #3200] sc_t=6010437293919 ps q=3
[NIC_DECOMP] drains=11200 cum_cycles=6401 ethdec=4800 jsched=1601
[NIC cqe_tap #3201] sc_t=6010494825996 ps q=2
[NIC cqe_tap #3202] sc_t=6010494825996 ps q=3
[NIC cqe_tap #3203] sc_t=6010552358073 ps q=2
[NIC cqe_tap #3204] sc_t=6010552358073 ps q=3
[NIC cqe_tap #3205] sc_t=6010609890150 ps q=2
[NIC cqe_tap #3206] sc_t=6010609890150 ps q=3
[NIC cqe_tap #3207] sc_t=6010667422227 ps q=2
[NIC cqe_tap #3208] sc_t=6010667422227 ps q=3
[NIC cqe_tap #3209] sc_t=6010724954304 ps q=2
[NIC cqe_tap #3210] sc_t=6010724954304 ps q=3
[NIC cqe_tap #3211] sc_t=6010782486381 ps q=2
[NIC cqe_tap #3212] sc_t=6010782486381 ps q=3
[NIC cqe_tap #3213] sc_t=6010840018458 ps q=2
[NIC cqe_tap #3214] sc_t=6010840018458 ps q=3
[NIC cqe_tap #3215] sc_t=6010897550535 ps q=2
[NIC cqe_tap #3216] sc_t=6010897550535 ps q=3
[NIC cqe_tap #3217] sc_t=6010955082612 ps q=2
[NIC cqe_tap #3218] sc_t=6010955082612 ps q=3
[NIC_DECOMP] drains=11264 cum_cycles=6438 ethdec=4827 jsched=1611
[NIC cqe_tap #3219] sc_t=6011012614689 ps q=2
[NIC cqe_tap #3220] sc_t=6011012614689 ps q=3
[NIC cqe_tap #3221] sc_t=6011070146766 ps q=2
[NIC cqe_tap #3222] sc_t=6011070146766 ps q=3
[NIC cqe_tap #3223] sc_t=6011127678843 ps q=2
[NIC cqe_tap #3224] sc_t=6011127678843 ps q=3
[NIC cqe_tap #3225] sc_t=6011185210920 ps q=2
[NIC cqe_tap #3226] sc_t=6011185210920 ps q=3
[NIC cqe_tap #3227] sc_t=6011242742997 ps q=2
[NIC cqe_tap #3228] sc_t=6011242742997 ps q=3
[NIC cqe_tap #3229] sc_t=6011300275074 ps q=2
[NIC cqe_tap #3230] sc_t=6011300275074 ps q=3
[NIC cqe_tap #3231] sc_t=6011357807151 ps q=2
[NIC cqe_tap #3232] sc_t=6011357807151 ps q=3
[NIC cqe_tap #3233] sc_t=6011415339228 ps q=2
[NIC cqe_tap #3234] sc_t=6011415339228 ps q=3
[NIC cqe_tap #3235] sc_t=6011472871305 ps q=2
[NIC cqe_tap #3236] sc_t=6011472871305 ps q=3
[NIC cqe_tap #3237] sc_t=6011530403382 ps q=2
[NIC cqe_tap #3238] sc_t=6011530403382 ps q=3
[NIC cqe_tap #3239] sc_t=6011587935459 ps q=2
[NIC cqe_tap #3240] sc_t=6011587935459 ps q=3
[NIC cqe_tap #3241] sc_t=6011645467536 ps q=2
[NIC cqe_tap #3242] sc_t=6011645467536 ps q=3
[NIC cqe_tap #3243] sc_t=6011702999613 ps q=2
[NIC cqe_tap #3244] sc_t=6011702999613 ps q=3
[NIC cqe_tap #3245] sc_t=6011760531690 ps q=2
[NIC cqe_tap #3246] sc_t=6011760531690 ps q=3
[NIC cqe_tap #3247] sc_t=6011818063767 ps q=2
[NIC cqe_tap #3248] sc_t=6011818063767 ps q=3
[NIC cqe_tap #3249] sc_t=6011875595844 ps q=2
[NIC cqe_tap #3250] sc_t=6011875595844 ps q=3
[NIC cqe_tap #3251] sc_t=6011933127921 ps q=2
[NIC cqe_tap #3252] sc_t=6011933127921 ps q=3
[NIC cqe_tap #3253] sc_t=6011990659998 ps q=2
[NIC cqe_tap #3254] sc_t=6011990659998 ps q=3
[NIC cqe_tap #3255] sc_t=6012048192075 ps q=2
[NIC cqe_tap #3256] sc_t=6012048192075 ps q=3
[NIC cqe_tap #3257] sc_t=6012105724152 ps q=2
[NIC cqe_tap #3258] sc_t=6012105724152 ps q=3
[NIC cqe_tap #3259] sc_t=6012163256229 ps q=2
[NIC cqe_tap #3260] sc_t=6012163256229 ps q=3
[NIC cqe_tap #3261] sc_t=6012220788306 ps q=2
[NIC cqe_tap #3262] sc_t=6012220788306 ps q=3
[NIC cqe_tap #3263] sc_t=6012278320383 ps q=2
[NIC cqe_tap #3264] sc_t=6012278320383 ps q=3
[NIC cqe_tap #3265] sc_t=6012335852460 ps q=2
[NIC cqe_tap #3266] sc_t=6012335852460 ps q=3
[NIC cqe_tap #3267] sc_t=6012393384537 ps q=2
[NIC cqe_tap #3268] sc_t=6012393384537 ps q=3
[NIC cqe_tap #3269] sc_t=6012450916614 ps q=2
[NIC cqe_tap #3270] sc_t=6012450916614 ps q=3
[NIC cqe_tap #3271] sc_t=6012508448691 ps q=2
[NIC cqe_tap #3272] sc_t=6012508448691 ps q=3
[NIC cqe_tap #3273] sc_t=6012565980768 ps q=2
[NIC cqe_tap #3274] sc_t=6012565980768 ps q=3
[NIC cqe_tap #3275] sc_t=6012623512845 ps q=2
[NIC cqe_tap #3276] sc_t=6012623512845 ps q=3
[NIC cqe_tap #3277] sc_t=6012681044922 ps q=2
[NIC cqe_tap #3278] sc_t=6012681044922 ps q=3
[NIC cqe_tap #3279] sc_t=6012738576999 ps q=2
[NIC cqe_tap #3280] sc_t=6012738576999 ps q=3
[NIC cqe_tap #3281] sc_t=6012796109076 ps q=2
[NIC cqe_tap #3282] sc_t=6012796109076 ps q=3
[NIC cqe_tap #3283] sc_t=6012853641153 ps q=2
[NIC cqe_tap #3284] sc_t=6012853641153 ps q=3
[NIC cqe_tap #3285] sc_t=6012911173230 ps q=2
[NIC cqe_tap #3286] sc_t=6012911173230 ps q=3
[NIC cqe_tap #3287] sc_t=6012968705307 ps q=2
[NIC cqe_tap #3288] sc_t=6012968705307 ps q=3
[NIC cqe_tap #3289] sc_t=6013026237384 ps q=2
[NIC cqe_tap #3290] sc_t=6013026237384 ps q=3
[NIC cqe_tap #3291] sc_t=6013083769461 ps q=2
[NIC cqe_tap #3292] sc_t=6013083769461 ps q=3
[NIC cqe_tap #3293] sc_t=6013141301538 ps q=2
[NIC cqe_tap #3294] sc_t=6013141301538 ps q=3
[NIC cqe_tap #3295] sc_t=6013198833615 ps q=2
[NIC cqe_tap #3296] sc_t=6013198833615 ps q=3
[NIC cqe_tap #3297] sc_t=6013256365692 ps q=2
[NIC cqe_tap #3298] sc_t=6013256365692 ps q=3
[NIC cqe_tap #3299] sc_t=6013313897769 ps q=2
[NIC cqe_tap #3300] sc_t=6013313897769 ps q=3
[NIC cqe_tap #3301] sc_t=6013371429846 ps q=2
[NIC cqe_tap #3302] sc_t=6013371429846 ps q=3
[NIC cqe_tap #3303] sc_t=6013428961923 ps q=2
[NIC cqe_tap #3304] sc_t=6013428961923 ps q=3
[NIC cqe_tap #3305] sc_t=6013486494 ns q=2
[NIC cqe_tap #3306] sc_t=6013486494 ns q=3
[NIC cqe_tap #3307] sc_t=6013544026077 ps q=2
[NIC cqe_tap #3308] sc_t=6013544026077 ps q=3
[NIC cqe_tap #3309] sc_t=6013601558154 ps q=2
[NIC cqe_tap #3310] sc_t=6013601558154 ps q=3
[NIC cqe_tap #3311] sc_t=6013862718066 ps q=2
[NIC cqe_tap #3312] sc_t=6013862718066 ps q=3
[NIC cqe_tap #3313] sc_t=6013920250143 ps q=2
[NIC cqe_tap #3314] sc_t=6013920250143 ps q=3
[NIC cqe_tap #3315] sc_t=6013977782220 ps q=2
[NIC cqe_tap #3316] sc_t=6013977782220 ps q=3
[NIC cqe_tap #3317] sc_t=6014035314297 ps q=2
[NIC cqe_tap #3318] sc_t=6014035314297 ps q=3
[NIC cqe_tap #3319] sc_t=6014092846374 ps q=2
[NIC cqe_tap #3320] sc_t=6014092846374 ps q=3
[NIC cqe_tap #3321] sc_t=6014150378451 ps q=2
[NIC cqe_tap #3322] sc_t=6014150378451 ps q=3
[NIC cqe_tap #3323] sc_t=6014207910528 ps q=2
[NIC cqe_tap #3324] sc_t=6014207910528 ps q=3
[NIC cqe_tap #3325] sc_t=6014265442605 ps q=2
[NIC cqe_tap #3326] sc_t=6014265442605 ps q=3
[NIC cqe_tap #3327] sc_t=6014322974682 ps q=2
[NIC cqe_tap #3328] sc_t=6014322974682 ps q=3
[NIC_DECOMP] drains=11648 cum_cycles=6657 ethdec=4992 jsched=1665
[NIC cqe_tap #3329] sc_t=6014380506759 ps q=2
[NIC cqe_tap #3330] sc_t=6014380506759 ps q=3
[NIC cqe_tap #3331] sc_t=6014438038836 ps q=2
[NIC cqe_tap #3332] sc_t=6014438038836 ps q=3
[NIC cqe_tap #3333] sc_t=6014495570913 ps q=2
[NIC cqe_tap #3334] sc_t=6014495570913 ps q=3
[NIC cqe_tap #3335] sc_t=6014553102990 ps q=2
[NIC cqe_tap #3336] sc_t=6014553102990 ps q=3
[NIC cqe_tap #3337] sc_t=6014610635067 ps q=2
[NIC cqe_tap #3338] sc_t=6014610635067 ps q=3
[NIC cqe_tap #3339] sc_t=6014668167144 ps q=2
[NIC cqe_tap #3340] sc_t=6014668167144 ps q=3
[NIC cqe_tap #3341] sc_t=6014725699221 ps q=2
[NIC cqe_tap #3342] sc_t=6014725699221 ps q=3
[NIC cqe_tap #3343] sc_t=6014783231298 ps q=2
[NIC cqe_tap #3344] sc_t=6014783231298 ps q=3
[NIC cqe_tap #3345] sc_t=6014840763375 ps q=2
[NIC cqe_tap #3346] sc_t=6014840763375 ps q=3
[NIC_DECOMP] drains=11712 cum_cycles=6694 ethdec=5019 jsched=1675
[NIC cqe_tap #3347] sc_t=6014898295452 ps q=2
[NIC cqe_tap #3348] sc_t=6014898295452 ps q=3
[NIC cqe_tap #3349] sc_t=6014955827529 ps q=2
[NIC cqe_tap #3350] sc_t=6014955827529 ps q=3
[NIC cqe_tap #3351] sc_t=6015013359606 ps q=2
[NIC cqe_tap #3352] sc_t=6015013359606 ps q=3
[NIC cqe_tap #3353] sc_t=6015070891683 ps q=2
[NIC cqe_tap #3354] sc_t=6015070891683 ps q=3
[NIC cqe_tap #3355] sc_t=6015128423760 ps q=2
[NIC cqe_tap #3356] sc_t=6015128423760 ps q=3
[NIC cqe_tap #3357] sc_t=6015185955837 ps q=2
[NIC cqe_tap #3358] sc_t=6015185955837 ps q=3
[NIC cqe_tap #3359] sc_t=6015243487914 ps q=2
[NIC cqe_tap #3360] sc_t=6015243487914 ps q=3
[NIC cqe_tap #3361] sc_t=6015301019991 ps q=2
[NIC cqe_tap #3362] sc_t=6015301019991 ps q=3
[NIC cqe_tap #3363] sc_t=6015358552068 ps q=2
[NIC cqe_tap #3364] sc_t=6015358552068 ps q=3
[NIC cqe_tap #3365] sc_t=6015416084145 ps q=2
[NIC cqe_tap #3366] sc_t=6015416084145 ps q=3
[NIC cqe_tap #3367] sc_t=6015473616222 ps q=2
[NIC cqe_tap #3368] sc_t=6015473616222 ps q=3
[NIC cqe_tap #3369] sc_t=6015531148299 ps q=2
[NIC cqe_tap #3370] sc_t=6015531148299 ps q=3
[NIC cqe_tap #3371] sc_t=6015588680376 ps q=2
[NIC cqe_tap #3372] sc_t=6015588680376 ps q=3
[NIC cqe_tap #3373] sc_t=6015646212453 ps q=2
[NIC cqe_tap #3374] sc_t=6015646212453 ps q=3
[NIC cqe_tap #3375] sc_t=6015703744530 ps q=2
[NIC cqe_tap #3376] sc_t=6015703744530 ps q=3
[NIC cqe_tap #3377] sc_t=6015761276607 ps q=2
[NIC cqe_tap #3378] sc_t=6015761276607 ps q=3
[NIC cqe_tap #3379] sc_t=6015818808684 ps q=2
[NIC cqe_tap #3380] sc_t=6015818808684 ps q=3
[NIC cqe_tap #3381] sc_t=6015876340761 ps q=2
[NIC cqe_tap #3382] sc_t=6015876340761 ps q=3
[NIC cqe_tap #3383] sc_t=6015933872838 ps q=2
[NIC cqe_tap #3384] sc_t=6015933872838 ps q=3
[NIC cqe_tap #3385] sc_t=6015991404915 ps q=2
[NIC cqe_tap #3386] sc_t=6015991404915 ps q=3
[NIC cqe_tap #3387] sc_t=6016048936992 ps q=2
[NIC cqe_tap #3388] sc_t=6016048936992 ps q=3
[NIC cqe_tap #3389] sc_t=6016106469069 ps q=2
[NIC cqe_tap #3390] sc_t=6016106469069 ps q=3
[NIC cqe_tap #3391] sc_t=6016164001146 ps q=2
[NIC cqe_tap #3392] sc_t=6016164001146 ps q=3
[NIC cqe_tap #3393] sc_t=6016221533223 ps q=2
[NIC cqe_tap #3394] sc_t=6016221533223 ps q=3
[NIC cqe_tap #3395] sc_t=6016279065300 ps q=2
[NIC cqe_tap #3396] sc_t=6016279065300 ps q=3
[NIC cqe_tap #3397] sc_t=6016336597377 ps q=2
[NIC cqe_tap #3398] sc_t=6016336597377 ps q=3
[NIC cqe_tap #3399] sc_t=6016394129454 ps q=2
[NIC cqe_tap #3400] sc_t=6016394129454 ps q=3
[NIC cqe_tap #3401] sc_t=6016451661531 ps q=2
[NIC cqe_tap #3402] sc_t=6016451661531 ps q=3
[NIC cqe_tap #3403] sc_t=6016509193608 ps q=2
[NIC cqe_tap #3404] sc_t=6016509193608 ps q=3
[NIC cqe_tap #3405] sc_t=6016566725685 ps q=2
[NIC cqe_tap #3406] sc_t=6016566725685 ps q=3
[NIC cqe_tap #3407] sc_t=6016624257762 ps q=2
[NIC cqe_tap #3408] sc_t=6016624257762 ps q=3
[NIC cqe_tap #3409] sc_t=6016681789839 ps q=2
[NIC cqe_tap #3410] sc_t=6016681789839 ps q=3
[NIC cqe_tap #3411] sc_t=6016739321916 ps q=2
[NIC cqe_tap #3412] sc_t=6016739321916 ps q=3
[NIC cqe_tap #3413] sc_t=6016796853993 ps q=2
[NIC cqe_tap #3414] sc_t=6016796853993 ps q=3
[NIC cqe_tap #3415] sc_t=6016854386070 ps q=2
[NIC cqe_tap #3416] sc_t=6016854386070 ps q=3
[NIC cqe_tap #3417] sc_t=6016911918147 ps q=2
[NIC cqe_tap #3418] sc_t=6016911918147 ps q=3
[NIC cqe_tap #3419] sc_t=6016969450224 ps q=2
[NIC cqe_tap #3420] sc_t=6016969450224 ps q=3
[NIC cqe_tap #3421] sc_t=6017026982301 ps q=2
[NIC cqe_tap #3422] sc_t=6017026982301 ps q=3
[NIC cqe_tap #3423] sc_t=6017084514378 ps q=2
[NIC cqe_tap #3424] sc_t=6017084514378 ps q=3
[NIC cqe_tap #3425] sc_t=6017142046455 ps q=2
[NIC cqe_tap #3426] sc_t=6017142046455 ps q=3
[NIC cqe_tap #3427] sc_t=6017199578532 ps q=2
[NIC cqe_tap #3428] sc_t=6017199578532 ps q=3
[NIC cqe_tap #3429] sc_t=6017257110609 ps q=2
[NIC cqe_tap #3430] sc_t=6017257110609 ps q=3
[NIC cqe_tap #3431] sc_t=6017314642686 ps q=2
[NIC cqe_tap #3432] sc_t=6017314642686 ps q=3
[NIC cqe_tap #3433] sc_t=6017372174763 ps q=2
[NIC cqe_tap #3434] sc_t=6017372174763 ps q=3
[NIC cqe_tap #3435] sc_t=6017429706840 ps q=2
[NIC cqe_tap #3436] sc_t=6017429706840 ps q=3
[NIC cqe_tap #3437] sc_t=6017487238917 ps q=2
[NIC cqe_tap #3438] sc_t=6017487238917 ps q=3
[NIC cqe_tap #3439] sc_t=6017544770994 ps q=2
[NIC cqe_tap #3440] sc_t=6017544770994 ps q=3
[NIC cqe_tap #3441] sc_t=6017602303071 ps q=2
[NIC cqe_tap #3442] sc_t=6017602303071 ps q=3
[NIC cqe_tap #3443] sc_t=6017659835148 ps q=2
[NIC cqe_tap #3444] sc_t=6017659835148 ps q=3
[NIC cqe_tap #3445] sc_t=6017717367225 ps q=2
[NIC cqe_tap #3446] sc_t=6017717367225 ps q=3
[NIC cqe_tap #3447] sc_t=6017774899302 ps q=2
[NIC cqe_tap #3448] sc_t=6017774899302 ps q=3
[NIC cqe_tap #3449] sc_t=6018036059214 ps q=2
[NIC cqe_tap #3450] sc_t=6018036059214 ps q=3
[NIC cqe_tap #3451] sc_t=6018093591291 ps q=2
[NIC cqe_tap #3452] sc_t=6018093591291 ps q=3
[NIC cqe_tap #3453] sc_t=6018151123368 ps q=2
[NIC cqe_tap #3454] sc_t=6018151123368 ps q=3
[NIC cqe_tap #3455] sc_t=6018208655445 ps q=2
[NIC cqe_tap #3456] sc_t=6018208655445 ps q=3
[NIC_DECOMP] drains=12096 cum_cycles=6913 ethdec=5184 jsched=1729
[NIC cqe_tap #3457] sc_t=6018266187522 ps q=2
[NIC cqe_tap #3458] sc_t=6018266187522 ps q=3
[NIC cqe_tap #3459] sc_t=6018323719599 ps q=2
[NIC cqe_tap #3460] sc_t=6018323719599 ps q=3
[NIC cqe_tap #3461] sc_t=6018381251676 ps q=2
[NIC cqe_tap #3462] sc_t=6018381251676 ps q=3
[NIC cqe_tap #3463] sc_t=6018438783753 ps q=2
[NIC cqe_tap #3464] sc_t=6018438783753 ps q=3
[NIC cqe_tap #3465] sc_t=6018496315830 ps q=2
[NIC cqe_tap #3466] sc_t=6018496315830 ps q=3
[NIC cqe_tap #3467] sc_t=6018553847907 ps q=2
[NIC cqe_tap #3468] sc_t=6018553847907 ps q=3
[NIC cqe_tap #3469] sc_t=6018611379984 ps q=2
[NIC cqe_tap #3470] sc_t=6018611379984 ps q=3
[NIC cqe_tap #3471] sc_t=6018668912061 ps q=2
[NIC cqe_tap #3472] sc_t=6018668912061 ps q=3
[NIC cqe_tap #3473] sc_t=6018726444138 ps q=2
[NIC cqe_tap #3474] sc_t=6018726444138 ps q=3
[NIC_DECOMP] drains=12160 cum_cycles=6950 ethdec=5211 jsched=1739
[NIC cqe_tap #3475] sc_t=6018783976215 ps q=2
[NIC cqe_tap #3476] sc_t=6018783976215 ps q=3
[NIC cqe_tap #3477] sc_t=6018841508292 ps q=2
[NIC cqe_tap #3478] sc_t=6018841508292 ps q=3
[NIC cqe_tap #3479] sc_t=6018899040369 ps q=2
[NIC cqe_tap #3480] sc_t=6018899040369 ps q=3
[NIC cqe_tap #3481] sc_t=6018956572446 ps q=2
[NIC cqe_tap #3482] sc_t=6018956572446 ps q=3
[NIC cqe_tap #3483] sc_t=6019014104523 ps q=2
[NIC cqe_tap #3484] sc_t=6019014104523 ps q=3
[NIC cqe_tap #3485] sc_t=6019071636600 ps q=2
[NIC cqe_tap #3486] sc_t=6019071636600 ps q=3
[NIC cqe_tap #3487] sc_t=6019129168677 ps q=2
[NIC cqe_tap #3488] sc_t=6019129168677 ps q=3
[NIC cqe_tap #3489] sc_t=6019186700754 ps q=2
[NIC cqe_tap #3490] sc_t=6019186700754 ps q=3
[NIC cqe_tap #3491] sc_t=6019244232831 ps q=2
[NIC cqe_tap #3492] sc_t=6019244232831 ps q=3
[NIC cqe_tap #3493] sc_t=6019301764908 ps q=2
[NIC cqe_tap #3494] sc_t=6019301764908 ps q=3
[NIC cqe_tap #3495] sc_t=6019359296985 ps q=2
[NIC cqe_tap #3496] sc_t=6019359296985 ps q=3
[NIC cqe_tap #3497] sc_t=6019416829062 ps q=2
[NIC cqe_tap #3498] sc_t=6019416829062 ps q=3
[NIC cqe_tap #3499] sc_t=6019474361139 ps q=2
[NIC cqe_tap #3500] sc_t=6019474361139 ps q=3
[NIC cqe_tap #3501] sc_t=6019531893216 ps q=2
[NIC cqe_tap #3502] sc_t=6019531893216 ps q=3
[NIC cqe_tap #3503] sc_t=6019589425293 ps q=2
[NIC cqe_tap #3504] sc_t=6019589425293 ps q=3
[NIC cqe_tap #3505] sc_t=6019646957370 ps q=2
[NIC cqe_tap #3506] sc_t=6019646957370 ps q=3
[NIC cqe_tap #3507] sc_t=6019704489447 ps q=2
[NIC cqe_tap #3508] sc_t=6019704489447 ps q=3
[NIC cqe_tap #3509] sc_t=6019762021524 ps q=2
[NIC cqe_tap #3510] sc_t=6019762021524 ps q=3
[NIC cqe_tap #3511] sc_t=6019819553601 ps q=2
[NIC cqe_tap #3512] sc_t=6019819553601 ps q=3
[NIC cqe_tap #3513] sc_t=6019877085678 ps q=2
[NIC cqe_tap #3514] sc_t=6019877085678 ps q=3
[NIC cqe_tap #3515] sc_t=6019934617755 ps q=2
[NIC cqe_tap #3516] sc_t=6019934617755 ps q=3
[NIC cqe_tap #3517] sc_t=6019992149832 ps q=2
[NIC cqe_tap #3518] sc_t=6019992149832 ps q=3
[NIC cqe_tap #3519] sc_t=6068158866900 ps q=2
[NIC cqe_tap #3520] sc_t=6068158866900 ps q=3
[NIC cqe_tap #3521] sc_t=6068217141900 ps q=2
[NIC cqe_tap #3522] sc_t=6068217141900 ps q=3
[NIC cqe_tap #3523] sc_t=6068275416900 ps q=2
[NIC cqe_tap #3524] sc_t=6068275416900 ps q=3
[NIC cqe_tap #3525] sc_t=6068333691900 ps q=2
[NIC cqe_tap #3526] sc_t=6068333691900 ps q=3
[NIC cqe_tap #3527] sc_t=6068391966900 ps q=2
[NIC cqe_tap #3528] sc_t=6068391966900 ps q=3
[NIC cqe_tap #3529] sc_t=6068450241900 ps q=2
[NIC cqe_tap #3530] sc_t=6068450241900 ps q=3
[NIC cqe_tap #3531] sc_t=6068508516900 ps q=2
[NIC cqe_tap #3532] sc_t=6068508516900 ps q=3
[NIC cqe_tap #3533] sc_t=6068566791900 ps q=2
[NIC cqe_tap #3534] sc_t=6068566791900 ps q=3
[NIC cqe_tap #3535] sc_t=6068625066900 ps q=2
[NIC cqe_tap #3536] sc_t=6068625066900 ps q=3
[NIC cqe_tap #3537] sc_t=6068683341900 ps q=2
[NIC cqe_tap #3538] sc_t=6068683341900 ps q=3
[NIC cqe_tap #3539] sc_t=6068741616900 ps q=2
[NIC cqe_tap #3540] sc_t=6068741616900 ps q=3
[NIC cqe_tap #3541] sc_t=6068799891900 ps q=2
[NIC cqe_tap #3542] sc_t=6068799891900 ps q=3
[NIC cqe_tap #3543] sc_t=6068858166900 ps q=2
[NIC cqe_tap #3544] sc_t=6068858166900 ps q=3
[NIC cqe_tap #3545] sc_t=6068916441900 ps q=2
[NIC cqe_tap #3546] sc_t=6068916441900 ps q=3
[NIC cqe_tap #3547] sc_t=6068974716900 ps q=2
[NIC cqe_tap #3548] sc_t=6068974716900 ps q=3
[NIC cqe_tap #3549] sc_t=6069032991900 ps q=2
[NIC cqe_tap #3550] sc_t=6069032991900 ps q=3
[NIC cqe_tap #3551] sc_t=6082658046540 ps q=2
[NIC cqe_tap #3552] sc_t=6082658046540 ps q=3
[NIC cqe_tap #3553] sc_t=6082716321540 ps q=2
[NIC cqe_tap #3554] sc_t=6082716321540 ps q=3
[NIC cqe_tap #3555] sc_t=6082774596540 ps q=2
[NIC cqe_tap #3556] sc_t=6082774596540 ps q=3
[NIC cqe_tap #3557] sc_t=6082832871540 ps q=2
[NIC cqe_tap #3558] sc_t=6082832871540 ps q=3
[NIC cqe_tap #3559] sc_t=6082891146540 ps q=2
[NIC cqe_tap #3560] sc_t=6082891146540 ps q=3
[NIC cqe_tap #3561] sc_t=6082949421540 ps q=2
[NIC cqe_tap #3562] sc_t=6082949421540 ps q=3
[NIC cqe_tap #3563] sc_t=6083007696540 ps q=2
[NIC cqe_tap #3564] sc_t=6083007696540 ps q=3
[NIC cqe_tap #3565] sc_t=6083065971540 ps q=2
[NIC cqe_tap #3566] sc_t=6083065971540 ps q=3
[NIC cqe_tap #3567] sc_t=6083124246540 ps q=2
[NIC cqe_tap #3568] sc_t=6083124246540 ps q=3
[NIC cqe_tap #3569] sc_t=6083182521540 ps q=2
[NIC cqe_tap #3570] sc_t=6083182521540 ps q=3
[NIC cqe_tap #3571] sc_t=6083240796540 ps q=2
[NIC cqe_tap #3572] sc_t=6083240796540 ps q=3
[NIC cqe_tap #3573] sc_t=6083299071540 ps q=2
[NIC cqe_tap #3574] sc_t=6083299071540 ps q=3
[NIC cqe_tap #3575] sc_t=6083357346540 ps q=2
[NIC cqe_tap #3576] sc_t=6083357346540 ps q=3
[NIC cqe_tap #3577] sc_t=6083415621540 ps q=2
[NIC cqe_tap #3578] sc_t=6083415621540 ps q=3
[NIC cqe_tap #3579] sc_t=6083473896540 ps q=2
[NIC cqe_tap #3580] sc_t=6083473896540 ps q=3
[NIC cqe_tap #3581] sc_t=6083532171540 ps q=2
[NIC cqe_tap #3582] sc_t=6083532171540 ps q=3
[NIC cqe_tap #3583] sc_t=6086224059957 ps q=2
[NIC cqe_tap #3584] sc_t=6086224059957 ps q=3
[NIC_DECOMP] drains=12544 cum_cycles=7169 ethdec=5376 jsched=1793
[NIC cqe_tap #3585] sc_t=6086282334957 ps q=2
[NIC cqe_tap #3586] sc_t=6086282334957 ps q=3
[NIC cqe_tap #3587] sc_t=6086340609957 ps q=2
[NIC cqe_tap #3588] sc_t=6086340609957 ps q=3
[NIC cqe_tap #3589] sc_t=6086398884957 ps q=2
[NIC cqe_tap #3590] sc_t=6086398884957 ps q=3
[NIC cqe_tap #3591] sc_t=6086457159957 ps q=2
[NIC cqe_tap #3592] sc_t=6086457159957 ps q=3
[NIC cqe_tap #3593] sc_t=6086515434957 ps q=2
[NIC cqe_tap #3594] sc_t=6086515434957 ps q=3
[NIC cqe_tap #3595] sc_t=6086573709957 ps q=2
[NIC cqe_tap #3596] sc_t=6086573709957 ps q=3
[NIC cqe_tap #3597] sc_t=6086631984957 ps q=2
[NIC cqe_tap #3598] sc_t=6086631984957 ps q=3
[NIC cqe_tap #3599] sc_t=6086690259957 ps q=2
[NIC cqe_tap #3600] sc_t=6086690259957 ps q=3
[NIC cqe_tap #3601] sc_t=6086748534957 ps q=2
[NIC cqe_tap #3602] sc_t=6086748534957 ps q=3
[NIC_DECOMP] drains=12608 cum_cycles=7206 ethdec=5403 jsched=1803
[NIC cqe_tap #3603] sc_t=6086806809957 ps q=2
[NIC cqe_tap #3604] sc_t=6086806809957 ps q=3
[NIC cqe_tap #3605] sc_t=6086865084957 ps q=2
[NIC cqe_tap #3606] sc_t=6086865084957 ps q=3
[NIC cqe_tap #3607] sc_t=6086923359957 ps q=2
[NIC cqe_tap #3608] sc_t=6086923359957 ps q=3
[NIC cqe_tap #3609] sc_t=6086981634957 ps q=2
[NIC cqe_tap #3610] sc_t=6086981634957 ps q=3
[NIC cqe_tap #3611] sc_t=6087039909957 ps q=2
[NIC cqe_tap #3612] sc_t=6087039909957 ps q=3
[NIC cqe_tap #3613] sc_t=6087098184957 ps q=2
[NIC cqe_tap #3614] sc_t=6087098184957 ps q=3
